
This summary file was generated by TurbSim (from OpenFAST-v3.4.1) on 25-Nov-2024 at 22:22:55.


Runtime Options:

      2032  Random seed #1
         0  Random seed #2
         F  Output binary HH turbulence parameters?
         F  Output formatted turbulence parameters?
         F  Output AeroDyn HH files?
         T  Output AeroDyn FF files?
         F  Output BLADED FF files?
         F  Output tower data?
         F  Output HAWC FF files?
         F  Output formatted FF files?
         T  Output coherent turbulence time step file?
 0 -  NONE  IEC turbulence models scaled to exact specified standard deviation


Turbine/Model Specifications:

        31  Vertical grid-point matrix dimension
        41  Horizontal grid-point matrix dimension
     0.100  Time step [seconds]
   200.000  Analysis time [seconds]
   200.000  Usable output time [seconds]
   151.000  Hub height [m]
   300.000  Grid height [m]
   600.000  Grid width [m]
     0.000  Vertical flow angle [degrees]
     0.000  Horizontal flow angle [degrees]


Meteorological Boundary Conditions:

    IECVKM  IEC von Karman spectral model
         1  IEC standard: IEC 61400-1 Ed. 2: 1999
    10.000  Percent turbulence intensity, IEC 61400-1 Ed. 2: 1999
       NTM  IEC Normal Turbulence Model
       N/A  IEC Extreme Turbulence Model (ETM) "c" parameter [m/s]
       PL   Wind profile type
   150.000  Reference height [m]
    10.000  Reference wind speed [m/s]
       N/A  Jet height [m]
     0.100  Power law exponent
     0.030  Surface roughness length [m]


Non-IEC Meteorological Boundary Conditions:

       N/A  Site latitude [degrees]
       N/A  Gradient Richardson number
       N/A  Friction or shear velocity [m/s]
       N/A  Mixing layer depth [m]
       N/A  Mean hub u'w' Reynolds stress
       N/A  Mean hub u'v' Reynolds stress
       N/A  Mean hub v'w' Reynolds stress


Spatial Coherence Models:

       IEC  u-component coherence model
       IEC  v-component coherence model
       IEC  w-component coherence model
(   12.000, 0.659E-03)  u-component coherence parameters
(   12.000, 0.659E-03)  v-component coherence parameters
(   12.000, 0.659E-03)  w-component coherence parameters
       N/A  Coherence exponent


You have requested that the following file(s) be generated:

   ./TurbulentWind_20WT/FOWTs/Wind\InflowWind_High_WT8.bts (AeroDyn/TurbSim full-field wind file)


Turbulence Simulation Scaling Parameter Summary:

   Turbulence model used                            =  IEC von Karman
   Turbulence characteristic                        =  User-specified
   IEC standard                                     =  IEC 61400-1 Ed. 2: 1999
   Mean wind speed at hub height                    =   10.007 m/s
   Characteristic value of standard deviation       =    1.001 m/s
   Turbulence scale                                 =   21.000 m
   Isotropic integral scale                         =   73.500 m
   Characteristic value of hub turbulence intensity =   10.000%
   Gradient Richardson number                       =    0.000

   Wind profile type                                =  Power law
   Power law exponent                               =    0.100
   Mean shear across rotor disk                     =    0.016 (m/s)/m
   Assumed rotor diameter                           =  300.000 m
   Surface roughness length                         =    0.030 m

   Nyquist frequency of turbulent wind field        =    5.000 Hz

   Number of time steps in the FFT                  =     2600
   Number of time steps output                      =     2600
   Number of points simulated                       =     1271


Mean Flow Angles:

   Vertical   =   0.0 degrees
   Horizontal =   0.0 degrees

Mean Wind Speed Profile:

   Height    Wind Speed   Horizontal Angle  Vertical Angle  U-comp (X)   V-comp (Y)   W-comp (Z)
     (m)        (m/s)         (degrees)       (degrees)       (m/s)        (m/s)        (m/s)   
   ------    ----------   ----------------  --------------  ----------   ----------   ----------
    301.0       10.72            0.00            0.00         10.72         0.00         0.00
    291.0       10.69            0.00            0.00         10.69         0.00         0.00
    281.0       10.65            0.00            0.00         10.65         0.00         0.00
    271.0       10.61            0.00            0.00         10.61         0.00         0.00
    261.0       10.57            0.00            0.00         10.57         0.00         0.00
    251.0       10.53            0.00            0.00         10.53         0.00         0.00
    241.0       10.49            0.00            0.00         10.49         0.00         0.00
    231.0       10.44            0.00            0.00         10.44         0.00         0.00
    221.0       10.40            0.00            0.00         10.40         0.00         0.00
    211.0       10.35            0.00            0.00         10.35         0.00         0.00
    201.0       10.30            0.00            0.00         10.30         0.00         0.00
    191.0       10.24            0.00            0.00         10.24         0.00         0.00
    181.0       10.19            0.00            0.00         10.19         0.00         0.00
    171.0       10.13            0.00            0.00         10.13         0.00         0.00
    161.0       10.07            0.00            0.00         10.07         0.00         0.00
    151.0       10.01            0.00            0.00         10.01         0.00         0.00
    141.0        9.94            0.00            0.00          9.94         0.00         0.00
    131.0        9.87            0.00            0.00          9.87         0.00         0.00
    121.0        9.79            0.00            0.00          9.79         0.00         0.00
    111.0        9.70            0.00            0.00          9.70         0.00         0.00
    101.0        9.61            0.00            0.00          9.61         0.00         0.00
     91.0        9.51            0.00            0.00          9.51         0.00         0.00
     81.0        9.40            0.00            0.00          9.40         0.00         0.00
     71.0        9.28            0.00            0.00          9.28         0.00         0.00
     61.0        9.14            0.00            0.00          9.14         0.00         0.00
     51.0        8.98            0.00            0.00          8.98         0.00         0.00
     41.0        8.78            0.00            0.00          8.78         0.00         0.00
     31.0        8.54            0.00            0.00          8.54         0.00         0.00
     21.0        8.22            0.00            0.00          8.22         0.00         0.00
     11.0        7.70            0.00            0.00          7.70         0.00         0.00
      1.0        6.06            0.00            0.00          6.06         0.00         0.00


Harvested Random Seeds after Generation of the Random Numbers:

   1944480636 Harvested seed # 1
   1971657505 Harvested seed # 2


Hub-Height Simulated Turbulence Statistical Summary:

   Type of Wind        Min (m/s)   Mean (m/s)    Max (m/s)  Sigma (m/s)       TI (%)
   ----------------    ---------   ----------    ---------  -----------       ------
   Longitudinal (u)         7.29        10.01        11.95        0.796        7.958
   Lateral (v)             -2.38        -0.00         2.69        0.848        8.473
   Vertical (w)            -2.75         0.00         2.75        0.902        9.015
   U component              7.29        10.01        11.95        0.796        7.958
   V component             -2.38        -0.00         2.69        0.848        8.473
   W component             -2.75         0.00         2.75        0.902        9.015
   Horizontal (U&V)         7.33        10.04        11.95        0.793        7.893
   Total                    7.35        10.08        12.03        0.798        7.915

                       Min Reynolds     Mean Reynolds    Max Reynolds    Correlation
   Product             Stress (m/s)^2   Stress (m/s)^2   Stress (m/s)^2  Coefficient
   ----------------    --------------   --------------   --------------  -----------
   u'w'                     -3.788            -0.007             2.997        -0.010
   u'v'                     -3.086            -0.005             4.518        -0.007
   v'w'                     -4.851            -0.221             2.500        -0.290


   Friction Velocity (Ustar)  =      0.083 m/s
   Maximum Instantaneous TKE  =      5.473 (m/s)^2
   Maximum Instantaneous CTKE =      2.655 (m/s)^2


Grid Point Variance Summary:

   Y-coord -300.00 -285.00 -270.00 -255.00 -240.00 -225.00 -210.00 -195.00 -180.00 -165.00 -150.00 -135.00 -120.00 -105.00  -90.00  -75.00  -60.00  -45.00  -30.00  -15.00    0.00   15.00   30.00   45.00   60.00   75.00   90.00  105.00  120.00  135.00  150.00  165.00  180.00  195.00  210.00  225.00  240.00  255.00  270.00  285.00  300.00

   Height   Standard deviation at grid points for the u component:
   301.00    0.988   0.769   0.821   0.868   0.757   0.777   0.837   0.878   0.854   0.864   0.922   0.898   0.780   0.890   0.927   0.818   0.955   0.925   1.028   1.049   0.981   0.910   0.910   0.966   1.038   1.023   1.009   1.226   1.156   1.180   1.068   0.817   0.810   0.856   0.956   0.944   0.903   0.953   0.930   0.874   1.043
   291.00    0.969   0.891   0.738   0.828   0.739   0.834   0.885   0.902   0.872   0.924   0.844   0.832   0.867   0.942   0.823   0.936   0.903   0.927   0.936   0.982   0.902   0.869   0.946   0.915   0.922   0.933   1.015   1.094   1.190   1.107   1.069   0.846   0.875   0.896   0.943   0.984   0.780   0.943   0.966   0.902   1.046
   281.00    1.022   1.049   0.900   0.883   0.872   0.853   0.916   0.929   0.851   0.901   0.839   0.869   0.791   0.898   0.821   0.812   0.971   0.937   0.909   1.015   0.857   0.892   0.908   0.940   0.967   1.025   1.046   1.103   1.194   0.958   0.854   0.855   0.916   0.971   0.987   0.901   0.853   1.023   1.012   0.960   0.921
   271.00    0.946   0.995   0.915   0.856   0.896   1.005   0.920   0.900   0.859   0.766   0.874   0.953   0.860   0.851   0.891   0.818   0.847   0.934   0.887   0.876   0.829   0.929   0.967   1.026   0.922   0.975   0.992   1.059   1.046   0.967   0.822   0.761   0.911   1.020   0.933   1.016   0.909   0.995   1.045   1.039   0.955
   261.00    0.954   0.973   0.869   0.960   0.985   1.074   1.047   0.828   0.815   0.836   0.812   0.869   0.952   0.943   0.875   0.761   0.777   0.809   0.870   0.790   0.792   0.811   0.994   0.977   0.970   0.975   1.125   1.102   1.044   0.814   0.792   0.851   0.956   1.011   0.912   0.926   0.967   0.973   1.014   1.006   0.893
   251.00    0.893   0.892   0.875   0.897   0.842   0.941   0.884   0.848   0.966   0.962   0.887   0.914   0.990   0.983   0.813   0.882   0.759   0.769   0.804   0.822   0.845   0.889   0.921   0.976   0.974   1.012   1.167   1.023   0.939   0.903   0.834   0.815   0.928   1.005   0.996   0.980   0.902   0.920   1.060   0.864   0.768
   241.00    0.855   0.814   0.806   0.808   0.868   1.017   0.890   0.944   1.047   0.869   0.819   0.998   0.946   0.882   0.852   0.800   0.841   0.811   0.867   0.884   0.909   0.972   0.987   1.027   1.147   1.117   1.133   0.959   1.046   0.931   0.837   0.779   0.920   1.013   1.023   0.902   0.837   0.840   0.986   0.933   0.818
   231.00    0.846   0.801   0.824   0.799   0.835   1.002   0.886   1.052   1.125   0.936   0.862   0.958   0.888   0.935   0.887   0.900   0.920   0.859   0.810   0.857   0.860   1.017   1.015   0.917   1.118   1.125   1.125   1.018   0.950   0.980   0.871   0.919   0.993   1.082   1.172   0.963   0.929   0.979   0.980   0.920   0.931
   221.00    0.844   0.846   0.740   0.811   0.763   0.950   0.862   0.928   1.043   0.964   0.936   0.895   0.891   0.901   0.936   0.959   0.878   0.827   0.899   0.875   0.953   0.897   0.970   0.925   1.129   1.127   1.153   1.147   1.137   1.039   0.983   0.976   1.085   0.989   1.160   1.026   0.909   1.024   0.988   0.888   1.026
   211.00    0.920   0.878   0.772   0.795   0.776   0.845   0.810   0.957   0.945   0.874   0.906   0.959   0.889   0.995   0.917   0.907   0.811   0.786   0.854   0.824   0.918   0.929   1.059   1.016   1.107   1.017   1.025   1.145   0.993   1.012   1.156   1.152   1.175   1.101   1.083   1.094   0.970   0.889   1.024   1.005   1.053
   201.00    0.923   0.929   0.874   0.798   0.771   0.892   0.864   1.015   0.904   0.819   0.846   0.951   1.015   0.982   0.966   0.844   0.926   0.809   0.811   0.907   0.885   0.881   1.038   0.961   0.990   1.046   0.978   0.990   0.972   0.984   1.172   1.122   1.168   1.045   1.034   0.954   1.047   1.052   0.930   0.998   1.002
   191.00    0.956   0.958   0.801   0.797   0.818   0.850   1.046   1.000   1.014   0.807   0.861   0.924   0.966   0.968   0.911   0.900   0.868   0.895   0.874   0.836   0.868   0.929   1.007   0.984   0.977   1.053   1.028   1.077   1.069   1.096   1.140   1.193   1.045   1.014   0.922   1.030   0.954   0.944   0.930   1.084   1.082
   181.00    0.943   0.978   0.949   0.928   0.785   0.915   0.974   1.020   1.031   0.983   0.849   0.871   0.941   0.895   0.801   0.894   0.941   0.925   0.940   0.971   0.999   0.915   0.915   0.887   0.991   0.993   1.079   1.110   1.128   1.078   1.220   1.291   1.192   1.077   1.115   1.008   1.010   0.888   0.978   1.036   1.098
   171.00    0.969   1.034   1.030   0.961   0.825   0.907   0.915   1.052   0.994   0.836   0.859   0.770   0.900   0.854   0.928   0.880   0.913   1.037   1.068   0.888   0.900   0.883   0.955   0.856   0.934   0.947   1.208   1.066   1.129   1.126   1.160   1.190   1.132   1.146   1.096   1.019   0.978   0.959   0.896   0.964   0.986
   161.00    1.035   1.071   1.019   0.937   0.948   0.951   1.078   0.939   0.857   0.851   0.844   0.805   0.938   1.049   0.825   0.887   0.844   0.985   1.060   0.970   0.756   0.826   0.909   0.925   1.080   1.052   1.110   1.155   1.146   1.216   1.194   1.044   1.113   1.120   1.006   0.980   1.016   0.948   0.933   0.924   1.030
   151.00    1.020   1.011   1.024   1.074   1.105   1.062   1.145   1.085   1.015   0.987   0.971   0.903   0.936   0.991   0.843   0.782   0.929   1.060   0.949   0.877   0.796   0.871   0.938   0.970   1.046   1.037   1.129   1.250   1.231   1.239   1.202   1.155   1.224   1.182   1.006   1.027   1.081   1.002   1.063   1.094   1.079
   141.00    0.938   0.936   1.056   1.109   1.104   1.102   1.006   1.015   1.004   0.917   0.917   0.947   0.888   0.887   0.900   0.873   0.975   0.982   0.935   0.858   0.805   0.922   0.990   0.951   0.973   0.947   1.063   1.209   1.246   1.260   1.101   1.004   1.230   1.119   1.166   1.045   1.112   1.054   1.101   1.055   1.122
   131.00    0.852   0.980   1.041   1.108   0.982   0.970   0.994   0.897   0.892   0.964   0.901   0.960   0.920   0.976   0.893   0.873   0.919   0.930   0.899   0.954   1.012   0.918   0.898   0.973   0.968   0.942   0.964   1.081   1.135   1.106   1.159   1.130   1.193   1.190   1.051   1.137   1.184   1.065   1.016   1.102   1.196
   121.00    0.794   0.958   1.083   1.007   1.012   0.987   0.926   0.935   0.825   0.929   0.948   0.974   0.911   0.953   0.928   0.936   1.041   0.910   0.906   1.031   1.027   0.849   0.934   0.976   0.826   0.820   0.921   1.020   1.047   1.070   0.883   1.054   1.114   1.071   0.904   1.023   1.129   1.045   1.060   1.186   1.110
   111.00    0.961   0.999   0.956   0.829   0.914   0.938   0.865   0.794   0.842   0.921   0.996   1.006   0.933   0.967   0.955   0.921   0.940   1.015   1.041   0.928   0.984   1.010   0.873   0.902   0.825   0.751   0.834   0.954   1.120   0.870   0.764   0.901   1.051   1.052   0.876   0.944   1.067   1.064   1.048   1.049   1.232
   101.00    1.042   0.955   0.886   0.886   0.809   0.823   0.837   0.803   0.914   0.936   0.948   1.037   0.896   1.042   0.989   0.873   0.946   0.967   1.000   0.924   0.963   1.043   0.907   0.861   0.835   0.870   0.900   0.946   0.947   0.878   0.860   0.879   1.029   1.166   1.048   1.044   1.044   1.150   1.005   1.145   1.173
    91.00    0.930   0.899   0.931   0.916   0.915   0.822   0.869   0.778   0.883   0.866   0.968   0.926   0.939   0.972   1.061   0.841   1.012   0.885   0.880   0.932   0.899   1.072   0.956   0.874   0.892   0.885   0.886   0.970   0.923   0.886   0.941   0.868   1.013   1.190   0.970   1.085   1.026   1.103   1.204   1.047   1.225
    81.00    0.927   0.924   1.022   0.943   0.920   0.853   0.861   0.864   0.856   0.822   0.963   0.932   1.016   1.011   0.902   0.977   1.017   0.864   0.868   0.786   0.911   1.039   1.076   1.033   0.955   1.001   0.866   0.876   0.868   0.812   0.906   0.987   1.097   1.140   1.169   1.015   0.961   1.039   1.107   1.231   1.312
    71.00    0.915   0.977   1.094   0.973   0.905   0.860   0.898   0.806   0.900   1.005   0.977   0.984   1.009   0.914   0.899   1.013   0.998   0.933   0.772   0.856   0.898   0.975   0.986   0.931   1.034   0.920   0.845   0.850   0.838   0.764   0.888   0.983   1.064   1.149   1.107   1.027   0.935   0.926   1.075   1.142   1.223
    61.00    0.874   0.901   1.068   1.039   0.967   1.048   0.929   0.795   0.892   0.864   0.950   0.867   0.919   0.826   0.857   0.970   1.000   0.925   0.931   0.889   0.870   0.893   0.792   0.788   0.900   0.938   0.940   0.939   0.856   0.730   0.893   1.013   0.893   1.143   1.067   1.026   0.869   1.021   1.065   1.170   1.125
    51.00    0.838   0.915   1.062   0.993   0.933   1.020   0.940   0.824   0.770   0.757   0.835   0.793   0.824   0.819   0.916   0.904   1.049   0.936   0.970   0.824   0.858   0.889   0.749   0.818   0.969   1.023   0.990   0.967   0.916   0.769   0.831   1.015   0.935   1.034   1.066   0.943   0.941   0.945   1.003   1.177   1.172
    41.00    0.901   1.022   1.084   1.094   0.994   0.944   0.983   0.918   0.876   0.863   0.840   0.935   0.825   0.785   0.934   0.899   0.930   0.990   1.046   0.927   0.791   0.867   0.779   0.921   0.876   0.872   0.897   0.861   0.982   0.970   0.975   1.079   1.063   0.973   1.058   0.937   0.904   1.015   0.856   1.143   1.103
    31.00    0.909   1.003   1.115   1.055   1.033   1.022   1.045   0.869   0.847   0.846   0.930   0.904   0.810   0.826   0.928   0.884   0.839   1.000   1.145   1.003   0.961   0.824   0.751   0.867   0.849   0.882   0.897   0.903   1.027   0.974   1.058   1.125   1.060   1.015   1.102   1.050   0.918   0.990   1.019   1.045   1.018
    21.00    0.985   1.214   1.154   1.072   1.028   1.038   0.955   0.961   0.880   1.008   0.902   0.926   0.814   0.921   0.994   0.812   0.942   1.091   1.146   1.142   0.990   0.827   0.851   0.837   0.855   0.965   0.981   0.983   0.966   0.903   1.009   1.090   0.969   1.083   1.057   1.152   1.037   0.950   0.915   0.936   0.899
    11.00    1.041   1.167   1.193   1.077   0.958   0.951   0.909   1.090   0.942   1.013   1.005   1.003   0.938   0.965   0.932   0.813   0.914   1.016   1.097   0.997   0.880   0.905   0.876   0.910   0.866   0.972   0.964   1.004   0.919   0.839   1.081   1.084   1.074   1.148   1.009   1.091   0.974   0.944   1.047   1.066   1.030
     1.00    0.963   1.070   1.069   1.114   1.042   0.947   1.092   1.035   0.949   1.088   0.934   0.958   0.915   0.911   0.937   0.924   0.887   1.002   1.079   0.884   0.873   0.977   0.906   0.889   0.763   0.879   0.980   0.967   0.936   0.883   1.019   0.979   1.074   1.057   1.048   1.031   1.076   0.973   1.014   1.024   1.118

   Height   Standard deviation at grid points for the v component:
   301.00    0.901   0.818   0.897   0.909   1.001   1.057   0.985   1.019   0.870   0.894   0.970   1.037   0.982   1.043   0.984   1.024   0.957   1.014   0.956   1.026   1.023   0.962   0.902   1.004   0.893   0.896   0.986   0.963   0.963   1.009   0.973   0.991   1.073   1.086   1.006   0.980   0.983   0.917   0.912   0.988   0.944
   291.00    0.838   0.855   0.944   0.940   1.042   1.016   1.011   1.053   0.940   0.931   0.814   0.920   0.983   0.971   1.001   1.018   0.968   1.088   1.038   0.959   1.004   0.958   1.042   1.014   0.942   0.872   0.912   0.852   0.907   0.950   0.884   0.977   0.996   1.048   1.028   0.979   1.060   0.990   0.975   0.906   0.939
   281.00    0.915   0.838   0.934   0.965   1.055   1.080   1.048   1.116   1.077   1.004   0.889   0.998   1.022   1.043   1.036   1.002   1.041   1.113   0.993   1.086   1.050   0.883   1.048   1.042   1.065   0.892   0.956   0.941   0.884   0.840   0.889   0.904   0.983   1.030   0.995   1.037   1.063   0.980   0.979   0.935   0.952
   271.00    0.864   0.849   0.973   0.977   1.038   0.927   1.037   1.137   1.073   0.991   0.816   0.823   0.991   1.066   1.151   0.934   1.100   1.141   1.075   1.067   1.037   0.808   0.995   1.060   0.968   0.982   0.918   0.922   0.909   0.872   0.878   0.958   0.953   0.987   0.979   1.046   1.052   0.979   0.989   1.022   0.961
   261.00    0.910   0.833   0.837   0.880   1.019   1.117   1.064   1.142   1.033   1.047   0.912   0.856   1.015   1.077   1.131   1.004   1.136   1.218   1.058   0.984   1.020   0.846   0.928   0.964   0.992   1.014   0.886   0.891   0.923   0.808   0.830   0.970   1.020   0.990   0.992   0.931   0.989   0.990   1.007   0.956   0.982
   251.00    0.947   0.867   0.939   1.004   0.955   0.965   1.052   1.104   0.950   0.974   0.918   1.019   0.978   0.977   1.063   1.135   1.177   1.149   0.966   1.025   0.949   0.870   0.868   0.919   1.027   0.947   0.905   0.853   0.906   0.861   0.828   0.932   1.000   1.048   0.982   0.917   0.917   0.951   1.000   0.907   1.063
   241.00    0.964   0.846   0.959   0.995   0.967   0.912   0.923   0.991   0.967   0.908   0.976   0.990   1.042   1.010   1.041   1.131   1.059   1.072   1.010   1.048   0.940   0.860   0.870   0.846   0.888   0.911   0.858   0.846   0.922   0.915   0.917   0.806   1.002   1.043   1.000   0.967   0.968   1.074   0.998   1.073   1.027
   231.00    0.998   0.955   0.974   1.001   1.029   0.948   0.925   0.916   0.984   0.940   1.027   0.955   1.129   1.030   1.057   1.074   1.140   1.044   1.047   1.036   0.966   0.921   0.901   0.839   0.869   0.899   0.889   0.905   0.976   0.860   0.928   0.875   0.991   1.001   1.021   0.906   0.962   1.073   1.089   1.044   0.974
   221.00    0.913   0.956   0.977   1.027   1.057   0.986   1.056   0.940   1.020   0.907   1.003   1.120   1.043   1.019   1.007   1.085   1.076   1.035   1.054   0.954   0.906   0.929   0.861   1.050   1.000   0.880   0.973   0.951   0.930   0.895   0.865   0.938   0.970   1.047   1.052   1.026   1.063   1.034   0.997   0.971   1.011
   211.00    0.912   0.884   0.973   1.002   1.097   1.069   1.096   0.964   1.007   1.005   0.957   1.065   1.143   0.972   0.980   0.988   1.053   0.937   1.013   0.968   0.929   1.014   0.868   0.927   1.100   0.939   0.883   0.889   0.955   0.891   0.951   0.896   0.939   1.060   1.011   0.972   0.986   0.957   0.877   0.860   0.985
   201.00    0.988   0.945   1.064   1.009   1.011   1.030   1.041   0.997   0.926   1.003   0.942   1.047   1.032   1.012   0.998   0.953   1.012   1.003   0.990   1.000   0.892   0.928   0.917   0.910   1.044   0.971   0.925   0.862   0.933   0.934   0.946   1.037   0.930   1.032   1.059   0.959   0.988   0.882   0.869   0.895   0.904
   191.00    1.017   0.936   1.010   1.066   1.060   1.076   0.959   0.877   1.016   0.932   0.964   1.010   0.972   1.000   0.917   1.070   1.006   0.927   0.994   0.977   0.997   0.911   0.918   0.974   1.049   0.972   0.935   0.957   0.924   0.966   1.006   1.001   0.944   1.028   1.006   0.929   0.950   0.889   0.836   0.935   1.041
   181.00    1.125   0.936   0.966   0.919   1.041   0.993   1.045   0.944   0.995   0.930   0.884   0.992   0.924   0.884   1.089   1.033   0.955   0.916   1.002   0.913   0.874   0.918   0.888   0.919   1.059   0.859   0.945   0.926   1.006   1.049   1.059   0.992   0.876   0.997   1.017   1.033   0.948   0.910   1.009   1.113   1.071
   171.00    1.074   0.997   1.069   1.126   1.101   0.976   1.028   1.002   1.004   0.898   0.927   0.993   0.896   1.023   1.071   0.943   0.900   0.932   0.900   0.897   0.852   0.902   0.984   0.875   0.956   0.970   0.954   0.991   0.929   1.013   1.016   0.958   0.860   0.927   1.072   1.085   1.026   0.938   1.128   1.088   1.050
   161.00    1.010   0.941   1.025   1.066   0.987   0.998   1.011   0.970   1.010   0.925   0.927   1.013   1.028   1.032   1.026   0.993   0.959   0.923   0.866   0.799   0.844   0.908   0.992   0.958   0.845   0.886   0.976   0.986   1.097   1.004   1.053   0.897   0.984   1.035   1.151   1.097   1.086   1.080   1.015   1.071   1.094
   151.00    0.957   0.935   1.028   1.082   0.949   0.889   1.044   1.071   0.934   0.931   0.914   1.022   1.051   0.962   0.969   1.007   0.933   0.882   0.980   0.773   0.848   0.882   0.931   0.961   0.919   0.788   0.915   1.068   1.113   0.959   0.946   0.958   1.064   1.056   1.140   1.118   1.096   1.132   0.956   1.005   1.065
   141.00    0.915   0.921   0.960   0.957   0.982   0.976   1.008   1.098   0.943   0.887   0.888   0.992   1.007   0.987   1.008   0.966   0.911   0.994   0.970   0.842   0.867   0.871   0.962   0.860   0.977   0.885   1.023   0.996   1.073   1.001   0.946   1.021   1.119   1.109   1.164   1.110   1.050   0.991   1.017   0.925   0.982
   131.00    0.951   0.903   0.937   0.864   0.906   0.974   1.031   1.112   1.024   0.920   0.909   0.945   0.915   1.029   1.014   0.942   0.996   0.995   0.892   0.864   0.860   0.882   0.940   0.996   0.931   0.970   0.916   0.939   1.006   0.986   1.010   0.939   0.945   0.987   1.072   1.089   1.079   0.990   0.857   0.876   0.966
   121.00    1.035   0.895   0.915   0.863   0.939   0.943   1.015   1.078   1.054   1.027   0.839   0.896   0.939   0.972   1.031   1.018   0.991   0.998   0.895   0.901   0.941   0.887   0.941   1.024   0.930   0.995   0.932   0.873   0.945   0.957   0.898   0.840   0.928   0.989   1.020   1.027   1.083   1.001   0.995   0.892   0.955
   111.00    1.036   0.955   1.008   0.935   0.878   0.967   0.994   1.068   0.951   0.895   0.876   0.907   0.903   0.923   0.919   0.992   0.961   0.892   0.953   0.936   0.958   0.921   0.965   1.041   1.044   1.019   0.965   0.851   0.862   0.936   0.855   0.899   0.931   0.910   0.975   1.037   1.111   1.013   0.943   0.871   0.954
   101.00    0.982   1.016   1.046   0.956   0.939   0.938   1.008   1.017   0.931   0.896   0.860   0.936   0.854   0.935   0.916   0.969   0.903   0.924   0.922   0.991   0.978   0.931   0.934   1.103   1.107   0.968   1.007   0.915   0.874   0.899   0.883   0.954   0.946   1.038   1.051   1.032   1.077   1.050   0.912   0.933   0.866
    91.00    1.084   1.051   1.029   1.012   1.017   0.974   0.923   1.027   0.913   0.958   0.941   0.920   0.917   0.943   0.922   0.956   0.912   0.859   0.903   0.989   1.004   1.007   0.980   1.038   1.109   1.213   1.075   1.021   0.982   0.886   0.819   0.915   0.888   0.957   1.093   1.077   1.037   0.921   0.917   0.963   0.895
    81.00    1.091   1.052   1.023   0.948   1.030   1.079   0.924   1.024   0.998   1.013   1.023   0.934   0.982   0.908   0.903   0.922   0.896   0.851   0.943   0.989   0.976   0.964   0.945   1.037   0.990   1.146   1.118   0.922   0.925   1.027   0.914   0.986   0.831   0.905   1.041   1.075   1.097   0.988   0.940   0.950   0.920
    71.00    0.960   1.040   0.995   0.928   0.999   1.035   1.000   1.022   0.966   1.031   1.072   1.020   0.926   0.925   0.915   0.841   0.808   0.895   0.988   1.017   0.964   0.997   0.862   0.988   1.008   1.093   1.047   0.988   1.030   0.971   0.954   1.026   0.904   0.929   0.869   1.078   1.154   0.889   0.898   0.992   1.011
    61.00    0.888   0.981   0.977   0.985   0.930   0.996   0.977   1.047   1.030   1.031   0.954   0.993   0.872   0.810   0.845   0.917   0.817   0.857   0.898   0.907   0.919   1.014   0.947   1.004   1.104   1.101   1.025   1.056   1.069   0.901   0.946   0.942   0.959   0.938   0.926   1.098   1.101   0.944   0.895   1.102   0.965
    51.00    0.877   0.986   0.945   0.995   0.962   1.026   0.954   0.915   0.891   0.892   0.960   0.999   0.863   0.937   1.030   0.894   0.856   0.868   0.846   0.845   0.904   0.927   0.988   0.923   1.034   1.084   1.062   1.077   0.995   0.934   0.931   0.957   0.933   0.973   1.020   1.034   1.012   1.062   0.999   1.096   0.985
    41.00    0.996   0.942   0.882   0.966   1.019   0.972   0.954   0.877   0.948   1.014   0.962   0.853   0.767   0.797   0.902   0.882   0.827   0.868   0.849   0.934   0.929   0.984   0.973   0.985   0.932   1.051   1.071   1.026   0.930   0.806   0.936   0.871   0.942   0.966   1.020   1.065   0.959   0.982   0.954   0.977   1.123
    31.00    0.916   0.942   0.913   0.872   0.935   1.009   1.154   0.990   1.048   1.011   0.941   0.866   0.719   0.898   0.934   0.915   0.944   0.896   0.912   0.959   0.944   0.953   0.865   0.945   0.999   0.979   0.895   0.992   0.971   0.900   1.032   0.993   0.894   1.047   0.958   0.992   1.022   0.955   0.959   0.978   1.097
    21.00    0.946   0.862   0.919   0.912   0.957   1.000   1.071   1.035   1.027   0.997   0.983   0.898   0.784   0.848   0.912   0.878   0.937   0.947   0.863   0.974   1.074   0.978   0.975   0.907   0.897   0.803   0.886   0.970   0.923   0.902   1.006   0.942   1.047   0.946   0.938   0.923   1.019   1.050   0.960   0.999   0.972
    11.00    1.029   0.851   0.963   0.846   0.919   0.965   1.013   0.922   0.935   0.962   0.978   0.876   0.804   0.875   0.962   0.960   0.924   0.947   0.901   0.915   0.955   0.910   0.851   0.849   0.900   0.931   1.004   0.921   0.939   0.975   1.017   0.941   0.988   0.846   0.947   0.886   1.014   0.940   0.997   1.057   0.979
     1.00    0.974   0.996   0.945   0.904   0.822   0.919   0.968   0.895   0.942   0.932   0.922   0.957   0.824   0.876   0.892   0.876   0.847   0.969   0.938   0.907   0.896   0.907   0.892   0.938   0.940   0.968   1.034   1.034   0.936   0.861   0.878   0.913   0.990   0.912   0.953   0.940   0.956   0.931   0.992   0.990   0.951

   Height   Standard deviation at grid points for the w component:
   301.00    0.994   1.059   1.098   1.113   1.068   1.001   0.978   0.987   0.942   1.006   0.940   0.923   1.012   1.072   1.005   1.092   0.985   1.049   1.032   1.073   1.100   1.025   1.091   1.037   1.000   0.972   0.933   0.789   0.840   0.840   0.784   0.829   0.825   0.887   0.966   0.957   1.039   0.955   0.979   0.967   1.031
   291.00    0.965   1.028   1.080   1.026   1.022   0.951   0.935   0.946   0.888   0.911   0.911   0.908   0.955   0.997   1.113   1.109   1.052   1.014   0.960   0.974   1.035   1.082   1.026   0.969   1.025   0.974   0.984   0.835   0.813   0.882   0.846   0.812   0.792   0.931   0.923   0.879   0.959   0.975   0.911   0.997   1.169
   281.00    0.951   1.005   1.029   1.103   0.970   0.965   1.071   0.921   0.919   0.923   0.980   0.976   0.909   0.952   0.976   1.021   0.917   1.026   1.014   0.969   0.989   1.011   0.895   0.984   0.946   0.925   0.921   0.995   0.858   0.920   0.896   0.900   0.977   0.979   0.858   0.928   1.026   0.987   0.845   0.906   1.015
   271.00    1.093   1.007   1.093   0.969   0.937   0.880   1.064   0.829   0.909   0.849   0.869   0.883   0.919   1.003   1.006   0.943   0.931   0.951   0.908   0.974   1.026   0.961   0.978   1.010   1.029   0.971   0.907   1.009   0.865   0.960   0.861   0.926   0.962   0.987   0.927   0.926   0.992   0.946   0.802   0.825   0.959
   261.00    1.016   1.000   1.069   1.053   0.953   0.921   1.035   0.936   0.969   0.829   0.868   0.869   0.939   0.984   0.995   0.993   0.968   1.005   0.914   1.015   1.085   1.007   0.930   1.010   0.932   0.933   0.894   0.853   0.852   0.878   0.834   0.911   0.900   0.996   1.019   0.957   0.904   0.929   0.849   0.870   0.873
   251.00    1.059   1.101   1.007   0.940   0.913   0.906   0.932   0.997   1.060   0.913   0.868   0.866   0.987   0.941   1.035   1.149   0.991   0.971   1.033   1.075   1.011   1.025   0.938   1.007   0.875   0.852   0.905   0.941   0.853   0.936   0.849   0.864   0.928   0.855   1.012   0.964   0.837   0.981   0.879   0.945   0.964
   241.00    0.990   1.039   0.970   0.853   0.992   1.001   0.934   1.102   1.173   0.938   0.846   0.965   1.033   0.992   1.123   1.108   0.977   0.963   1.020   0.969   0.973   0.996   0.930   0.967   0.877   0.935   0.883   0.976   0.872   0.914   0.823   0.866   0.876   0.830   0.918   1.003   0.854   0.846   0.997   0.912   0.860
   231.00    1.055   1.039   0.978   0.885   0.909   1.014   0.989   1.127   1.157   0.971   0.951   0.871   1.049   0.995   1.100   1.083   1.035   0.984   0.997   0.899   0.822   0.907   0.964   0.909   0.913   0.927   0.880   0.926   0.914   0.965   0.920   0.989   0.875   0.867   0.860   0.927   0.874   0.924   0.961   0.899   0.847
   221.00    0.989   1.077   0.930   0.854   0.985   0.955   1.050   1.033   1.159   0.986   0.940   0.951   0.991   0.922   0.948   0.969   0.931   0.976   1.021   0.787   0.923   0.841   0.870   0.875   0.930   0.931   0.979   0.818   0.869   0.921   0.977   0.987   0.945   0.821   0.882   0.891   0.862   0.887   0.924   0.846   0.889
   211.00    1.071   1.056   1.063   0.980   0.964   0.978   0.969   1.019   1.057   0.909   0.880   0.823   0.909   0.903   0.878   0.964   0.974   1.059   1.021   0.859   0.855   0.833   0.824   0.788   1.009   1.022   1.016   0.985   0.907   0.863   0.938   0.924   0.950   0.846   0.874   0.934   0.919   0.817   0.942   0.927   0.979
   201.00    1.069   1.065   1.044   1.004   0.959   0.925   1.003   1.093   1.025   0.898   0.912   0.960   0.911   0.988   0.908   1.005   1.021   0.950   1.033   0.950   0.882   0.868   0.969   0.926   1.008   1.007   1.032   0.981   0.963   0.907   0.944   1.021   0.911   0.927   0.839   0.905   0.975   0.944   0.804   0.911   0.960
   191.00    1.059   1.059   1.073   1.099   0.998   0.903   0.976   0.965   0.964   0.968   0.938   0.942   0.935   0.896   0.872   0.909   1.005   0.970   1.060   0.967   0.971   0.850   0.941   0.870   1.036   1.044   0.927   0.998   0.953   0.804   0.998   0.982   0.944   0.956   0.909   0.970   0.996   0.854   0.922   0.967   0.970
   181.00    1.054   1.014   0.994   0.946   0.992   0.937   0.898   0.932   0.967   0.956   0.810   0.890   0.938   0.945   0.942   0.989   0.882   0.942   1.013   1.014   1.026   0.934   0.919   0.877   0.988   0.979   0.889   0.865   0.896   0.895   0.950   0.954   0.914   0.914   1.023   0.823   0.826   0.914   0.891   0.931   0.981
   171.00    0.964   0.907   0.933   0.998   0.916   0.841   0.880   0.885   0.972   0.938   0.934   0.900   0.912   0.958   0.951   0.936   0.965   0.827   0.894   0.984   0.882   0.926   0.883   0.918   0.936   0.994   0.898   0.887   0.874   0.896   0.933   0.889   0.930   0.937   0.928   0.895   0.930   0.868   0.967   0.975   1.016
   161.00    0.987   1.002   1.012   1.012   1.045   0.976   0.968   0.897   0.932   0.963   0.981   0.869   0.926   0.935   0.876   0.900   0.944   0.865   0.945   0.916   0.853   0.914   0.854   0.984   0.960   0.977   0.959   0.834   0.805   0.823   0.846   0.945   0.937   0.972   0.859   0.891   0.944   0.994   0.979   0.868   0.959
   151.00    0.985   0.965   0.957   0.945   0.977   1.034   0.985   0.912   0.933   0.963   0.960   0.930   0.910   0.836   0.952   0.959   1.013   0.912   0.926   0.964   0.902   0.977   1.066   1.001   0.972   0.994   0.965   0.863   0.871   0.933   0.863   0.940   0.929   0.929   0.900   0.882   0.942   0.940   1.065   0.937   0.958
   141.00    1.006   0.901   1.014   1.014   0.933   0.963   0.994   1.043   0.962   0.889   0.897   0.914   1.032   0.927   1.007   0.961   0.870   0.925   0.947   0.899   0.983   0.933   1.049   0.963   0.921   1.006   0.933   0.956   0.761   0.870   0.838   0.878   0.997   0.849   0.815   0.855   0.904   0.969   1.075   0.939   1.008
   131.00    1.007   0.932   0.975   0.931   0.941   0.969   0.963   1.089   0.902   0.858   0.876   0.886   0.957   0.974   0.891   0.803   0.816   0.971   0.935   0.909   0.913   0.947   1.000   0.903   0.901   0.901   0.862   0.928   0.877   0.891   0.865   0.939   1.052   0.952   0.874   0.845   0.885   0.885   0.962   0.993   1.011
   121.00    0.895   0.982   0.981   1.070   1.085   1.034   1.049   1.099   1.021   0.947   0.883   0.950   0.987   0.980   0.918   0.859   0.844   0.971   0.979   0.848   0.920   1.018   0.962   0.855   0.909   0.905   0.904   0.872   0.874   0.981   0.785   0.958   1.035   0.917   0.881   0.849   0.815   0.915   0.958   0.933   1.019
   111.00    1.017   1.029   1.048   1.138   1.092   0.991   1.036   1.020   0.978   0.901   0.878   0.976   1.088   1.024   1.033   0.833   0.886   0.866   0.980   0.947   1.019   1.027   0.928   0.984   1.018   0.927   0.971   0.893   0.943   0.920   0.850   0.858   0.942   0.898   0.891   0.858   0.984   0.999   0.938   0.900   1.013
   101.00    1.014   0.975   1.070   1.054   1.117   1.004   0.959   0.875   1.016   0.934   0.917   0.980   0.965   0.962   1.090   0.862   0.886   0.898   0.886   0.992   1.018   0.992   0.979   1.027   0.927   0.993   1.017   0.901   0.868   0.897   0.987   0.940   0.841   0.879   0.932   0.863   1.030   1.036   0.985   0.942   0.953
    91.00    0.896   0.958   1.012   1.033   1.088   0.927   0.911   0.864   0.921   0.935   0.982   1.068   1.008   0.864   1.008   0.910   0.900   0.902   0.810   0.977   0.967   1.025   1.000   1.025   0.899   0.890   0.926   0.791   0.977   0.832   0.912   0.893   0.901   0.997   0.974   1.013   0.942   0.984   0.958   0.947   0.959
    81.00    0.914   0.922   1.001   1.087   0.959   0.940   0.919   0.897   0.945   1.032   1.026   1.027   0.989   0.837   0.911   0.983   0.951   0.911   0.873   1.043   1.000   0.978   0.983   0.931   0.800   0.881   0.830   0.853   0.937   0.834   0.832   0.896   0.917   0.976   0.948   0.989   1.069   1.003   0.915   0.932   1.015
    71.00    0.942   0.957   1.075   1.031   0.916   0.872   0.931   0.898   0.980   0.998   0.950   0.941   0.960   0.884   0.831   0.944   0.963   0.849   0.907   0.970   0.923   0.932   1.033   0.937   0.885   0.984   0.924   0.959   0.887   0.874   0.783   0.875   0.892   0.916   0.849   0.959   1.035   0.932   0.911   0.892   1.038
    61.00    0.887   0.990   1.069   1.005   0.895   0.931   0.845   0.860   0.890   0.960   0.977   1.013   1.034   0.939   0.851   0.893   1.002   0.978   0.896   0.971   0.827   0.897   0.913   0.880   0.868   0.946   0.900   1.023   1.042   0.986   0.875   0.894   0.889   0.901   0.762   1.003   0.952   0.946   0.975   0.910   0.978
    51.00    0.999   1.025   1.053   1.043   0.891   0.926   0.906   0.880   0.960   1.023   0.991   1.061   1.043   0.986   0.918   0.940   1.087   0.974   0.929   0.997   0.924   0.990   0.884   0.905   0.854   0.932   0.960   0.957   0.985   0.889   0.833   0.864   0.924   0.924   0.919   1.005   0.974   0.971   1.002   1.021   0.998
    41.00    1.088   0.984   0.917   1.004   0.958   0.901   0.939   0.851   0.998   1.037   0.981   1.074   1.068   0.981   0.911   0.908   1.004   0.946   0.992   1.001   0.897   0.895   0.899   0.834   0.836   0.888   1.008   0.962   0.933   1.019   0.942   0.878   0.934   0.971   1.011   1.013   0.898   0.878   0.951   0.992   0.962
    31.00    1.099   0.937   0.934   0.957   0.922   0.906   0.876   0.877   0.987   1.028   1.064   1.098   1.043   0.951   0.896   0.833   0.895   0.888   0.834   0.992   0.952   0.790   0.913   0.972   0.986   0.859   0.946   1.004   0.983   0.960   0.981   0.898   0.894   0.871   0.957   0.933   0.911   0.861   0.959   1.050   0.959
    21.00    1.007   0.968   0.872   1.024   0.934   0.794   0.840   0.998   0.998   1.072   1.110   1.142   1.054   0.900   0.922   0.912   0.872   0.916   0.851   0.974   0.996   0.901   0.871   0.913   0.972   0.930   0.852   0.995   0.876   0.987   0.993   0.899   0.906   0.902   0.963   0.943   0.913   0.947   0.883   0.994   0.999
    11.00    0.979   0.907   0.838   0.931   0.866   0.872   0.913   0.964   0.987   1.031   1.089   1.216   1.100   0.937   0.971   0.886   0.845   0.903   0.995   1.037   0.983   0.859   0.819   0.874   0.859   0.972   0.905   0.956   0.921   0.907   0.990   0.963   0.974   0.851   0.944   0.872   0.853   0.882   0.921   0.937   0.965
     1.00    0.974   0.882   0.914   0.967   0.980   0.886   0.918   0.992   1.041   1.051   1.068   1.129   1.072   1.053   1.030   0.994   0.964   0.982   1.044   1.077   1.066   0.975   0.905   0.878   0.845   0.959   0.874   0.915   0.994   1.007   1.032   1.007   0.925   0.928   0.959   0.957   1.028   0.885   0.927   0.934   0.913

   Mean standard deviation across all grid points:
      u component:    0.959 m/s
      v component:    0.969 m/s
      w component:    0.949 m/s


U-component (X) statistics from the interpolated hub point:

   Mean =  10.0066 m/s
   TI   =   7.9575 %


Processing complete.  9.0312 CPU seconds used.
