
This summary file was generated by TurbSim (from OpenFAST-v3.4.1) on 25-Nov-2024 at 22:19:41.


Runtime Options:

      2027  Random seed #1
         0  Random seed #2
         F  Output binary HH turbulence parameters?
         F  Output formatted turbulence parameters?
         F  Output AeroDyn HH files?
         T  Output AeroDyn FF files?
         F  Output BLADED FF files?
         F  Output tower data?
         F  Output HAWC FF files?
         F  Output formatted FF files?
         T  Output coherent turbulence time step file?
 0 -  NONE  IEC turbulence models scaled to exact specified standard deviation


Turbine/Model Specifications:

        31  Vertical grid-point matrix dimension
        41  Horizontal grid-point matrix dimension
     0.100  Time step [seconds]
   200.000  Analysis time [seconds]
   200.000  Usable output time [seconds]
   151.000  Hub height [m]
   300.000  Grid height [m]
   600.000  Grid width [m]
     0.000  Vertical flow angle [degrees]
     0.000  Horizontal flow angle [degrees]


Meteorological Boundary Conditions:

    IECVKM  IEC von Karman spectral model
         1  IEC standard: IEC 61400-1 Ed. 2: 1999
    10.000  Percent turbulence intensity, IEC 61400-1 Ed. 2: 1999
       NTM  IEC Normal Turbulence Model
       N/A  IEC Extreme Turbulence Model (ETM) "c" parameter [m/s]
       PL   Wind profile type
   150.000  Reference height [m]
    10.000  Reference wind speed [m/s]
       N/A  Jet height [m]
     0.100  Power law exponent
     0.030  Surface roughness length [m]


Non-IEC Meteorological Boundary Conditions:

       N/A  Site latitude [degrees]
       N/A  Gradient Richardson number
       N/A  Friction or shear velocity [m/s]
       N/A  Mixing layer depth [m]
       N/A  Mean hub u'w' Reynolds stress
       N/A  Mean hub u'v' Reynolds stress
       N/A  Mean hub v'w' Reynolds stress


Spatial Coherence Models:

       IEC  u-component coherence model
       IEC  v-component coherence model
       IEC  w-component coherence model
(   12.000, 0.659E-03)  u-component coherence parameters
(   12.000, 0.659E-03)  v-component coherence parameters
(   12.000, 0.659E-03)  w-component coherence parameters
       N/A  Coherence exponent


You have requested that the following file(s) be generated:

   ./TurbulentWind_20WT/FOWTs/Wind\InflowWind_High_WT3.bts (AeroDyn/TurbSim full-field wind file)


Turbulence Simulation Scaling Parameter Summary:

   Turbulence model used                            =  IEC von Karman
   Turbulence characteristic                        =  User-specified
   IEC standard                                     =  IEC 61400-1 Ed. 2: 1999
   Mean wind speed at hub height                    =   10.007 m/s
   Characteristic value of standard deviation       =    1.001 m/s
   Turbulence scale                                 =   21.000 m
   Isotropic integral scale                         =   73.500 m
   Characteristic value of hub turbulence intensity =   10.000%
   Gradient Richardson number                       =    0.000

   Wind profile type                                =  Power law
   Power law exponent                               =    0.100
   Mean shear across rotor disk                     =    0.016 (m/s)/m
   Assumed rotor diameter                           =  300.000 m
   Surface roughness length                         =    0.030 m

   Nyquist frequency of turbulent wind field        =    5.000 Hz

   Number of time steps in the FFT                  =     2600
   Number of time steps output                      =     2600
   Number of points simulated                       =     1271


Mean Flow Angles:

   Vertical   =   0.0 degrees
   Horizontal =   0.0 degrees

Mean Wind Speed Profile:

   Height    Wind Speed   Horizontal Angle  Vertical Angle  U-comp (X)   V-comp (Y)   W-comp (Z)
     (m)        (m/s)         (degrees)       (degrees)       (m/s)        (m/s)        (m/s)   
   ------    ----------   ----------------  --------------  ----------   ----------   ----------
    301.0       10.72            0.00            0.00         10.72         0.00         0.00
    291.0       10.69            0.00            0.00         10.69         0.00         0.00
    281.0       10.65            0.00            0.00         10.65         0.00         0.00
    271.0       10.61            0.00            0.00         10.61         0.00         0.00
    261.0       10.57            0.00            0.00         10.57         0.00         0.00
    251.0       10.53            0.00            0.00         10.53         0.00         0.00
    241.0       10.49            0.00            0.00         10.49         0.00         0.00
    231.0       10.44            0.00            0.00         10.44         0.00         0.00
    221.0       10.40            0.00            0.00         10.40         0.00         0.00
    211.0       10.35            0.00            0.00         10.35         0.00         0.00
    201.0       10.30            0.00            0.00         10.30         0.00         0.00
    191.0       10.24            0.00            0.00         10.24         0.00         0.00
    181.0       10.19            0.00            0.00         10.19         0.00         0.00
    171.0       10.13            0.00            0.00         10.13         0.00         0.00
    161.0       10.07            0.00            0.00         10.07         0.00         0.00
    151.0       10.01            0.00            0.00         10.01         0.00         0.00
    141.0        9.94            0.00            0.00          9.94         0.00         0.00
    131.0        9.87            0.00            0.00          9.87         0.00         0.00
    121.0        9.79            0.00            0.00          9.79         0.00         0.00
    111.0        9.70            0.00            0.00          9.70         0.00         0.00
    101.0        9.61            0.00            0.00          9.61         0.00         0.00
     91.0        9.51            0.00            0.00          9.51         0.00         0.00
     81.0        9.40            0.00            0.00          9.40         0.00         0.00
     71.0        9.28            0.00            0.00          9.28         0.00         0.00
     61.0        9.14            0.00            0.00          9.14         0.00         0.00
     51.0        8.98            0.00            0.00          8.98         0.00         0.00
     41.0        8.78            0.00            0.00          8.78         0.00         0.00
     31.0        8.54            0.00            0.00          8.54         0.00         0.00
     21.0        8.22            0.00            0.00          8.22         0.00         0.00
     11.0        7.70            0.00            0.00          7.70         0.00         0.00
      1.0        6.06            0.00            0.00          6.06         0.00         0.00


Harvested Random Seeds after Generation of the Random Numbers:

    371356615 Harvested seed # 1
   1971657505 Harvested seed # 2


Hub-Height Simulated Turbulence Statistical Summary:

   Type of Wind        Min (m/s)   Mean (m/s)    Max (m/s)  Sigma (m/s)       TI (%)
   ----------------    ---------   ----------    ---------  -----------       ------
   Longitudinal (u)         6.90        10.01        12.75        1.040       10.389
   Lateral (v)             -3.48        -0.00         2.75        0.996        9.950
   Vertical (w)            -2.62         0.00         2.45        0.884        8.831
   U component              6.90        10.01        12.75        1.040       10.389
   V component             -3.48        -0.00         2.75        0.996        9.950
   W component             -2.62         0.00         2.45        0.884        8.831
   Horizontal (U&V)         6.90        10.06        12.80        1.031       10.256
   Total                    7.24        10.10        12.80        1.014       10.044

                       Min Reynolds     Mean Reynolds    Max Reynolds    Correlation
   Product             Stress (m/s)^2   Stress (m/s)^2   Stress (m/s)^2  Coefficient
   ----------------    --------------   --------------   --------------  -----------
   u'w'                     -3.602             0.126             7.468         0.137
   u'v'                     -4.223            -0.069             3.204        -0.067
   v'w'                     -4.428            -0.114             3.233        -0.130


   Friction Velocity (Ustar)  =      0.355 m/s
   Maximum Instantaneous TKE  =      7.723 (m/s)^2
   Maximum Instantaneous CTKE =      3.741 (m/s)^2


Grid Point Variance Summary:

   Y-coord -300.00 -285.00 -270.00 -255.00 -240.00 -225.00 -210.00 -195.00 -180.00 -165.00 -150.00 -135.00 -120.00 -105.00  -90.00  -75.00  -60.00  -45.00  -30.00  -15.00    0.00   15.00   30.00   45.00   60.00   75.00   90.00  105.00  120.00  135.00  150.00  165.00  180.00  195.00  210.00  225.00  240.00  255.00  270.00  285.00  300.00

   Height   Standard deviation at grid points for the u component:
   301.00    0.905   0.853   0.969   1.003   0.877   0.828   0.994   0.845   0.957   0.952   1.000   0.935   0.966   0.933   0.896   0.870   0.854   0.856   0.862   0.825   0.865   0.934   1.086   1.013   1.088   0.764   0.849   0.730   0.759   0.940   0.879   0.798   0.926   0.955   0.977   0.936   0.984   0.886   0.879   0.909   0.846
   291.00    0.860   0.872   0.952   0.936   0.818   0.754   0.914   0.900   0.986   1.115   1.039   1.091   1.042   1.024   0.953   0.910   0.849   0.797   0.855   0.914   0.821   0.883   1.068   1.031   0.952   0.948   0.883   0.844   0.784   0.909   0.882   0.903   0.991   0.943   0.898   1.088   0.963   0.968   0.968   0.857   0.879
   281.00    0.865   0.936   0.990   0.968   0.894   0.875   0.915   0.898   0.904   1.012   1.093   0.905   1.030   0.988   0.875   0.866   0.900   0.879   0.884   0.858   0.800   0.764   0.996   1.048   0.994   1.032   0.941   0.864   0.866   0.903   0.951   1.012   0.960   0.939   1.023   1.081   0.911   1.025   0.977   0.901   0.903
   271.00    0.800   0.828   0.993   1.072   1.121   0.984   1.024   0.957   0.982   1.030   0.965   1.006   1.119   0.919   0.894   0.840   0.930   0.864   0.821   0.913   0.788   0.933   0.945   1.134   1.075   1.042   1.021   0.968   0.919   1.079   1.040   0.892   1.023   1.078   1.120   1.205   1.106   1.044   0.903   0.876   0.897
   261.00    0.788   0.860   0.924   0.945   1.069   1.089   1.017   1.072   1.087   1.136   1.011   0.979   1.059   0.951   0.829   0.790   0.858   0.868   0.807   0.969   0.902   0.977   1.069   1.149   1.102   1.120   1.158   1.006   1.012   1.007   0.997   0.880   1.070   1.154   1.193   1.161   0.985   0.872   0.879   0.946   0.948
   251.00    0.836   0.879   0.914   1.092   1.103   1.058   0.968   1.042   1.041   1.117   1.082   0.989   1.016   0.887   0.840   0.842   0.841   0.879   0.857   0.970   1.036   1.082   1.191   1.211   1.125   1.158   1.106   0.999   1.017   0.997   1.014   0.906   0.999   1.067   1.086   0.973   0.973   0.923   0.885   0.998   0.905
   241.00    0.902   0.986   0.892   1.011   1.024   0.931   0.956   1.048   1.005   1.102   1.094   0.929   0.997   0.945   0.917   0.914   0.895   0.862   0.953   0.918   1.033   1.132   1.182   1.166   1.068   1.087   1.056   0.954   0.996   0.918   1.131   1.023   1.108   1.024   0.986   0.947   0.951   0.968   1.043   1.008   0.972
   231.00    0.933   0.955   0.969   0.989   1.005   0.946   0.886   1.018   1.019   0.995   1.101   0.923   0.990   0.981   0.929   0.915   1.001   0.948   0.902   0.906   1.017   1.176   1.210   0.999   1.177   1.175   1.098   1.042   1.076   1.020   1.218   1.030   1.087   1.036   0.988   0.901   0.905   0.974   0.952   1.043   0.859
   221.00    1.107   1.045   1.083   1.036   0.965   0.821   0.739   0.855   0.875   1.022   1.082   0.941   1.020   0.968   0.884   0.963   0.991   0.948   0.961   1.031   1.088   1.096   1.068   1.079   1.172   1.090   0.980   1.093   0.942   1.010   1.143   1.056   0.995   0.997   0.838   0.844   0.935   1.031   0.917   1.040   0.963
   211.00    1.013   1.036   1.146   1.183   1.020   0.798   0.889   0.859   0.856   1.057   1.091   0.861   0.952   0.834   0.956   0.922   1.047   0.912   1.001   1.048   1.078   1.088   1.096   1.037   1.159   1.121   1.050   1.057   1.079   0.944   1.131   1.186   1.155   0.970   0.809   0.849   0.952   1.078   0.954   0.939   0.993
   201.00    1.063   1.121   1.191   1.215   0.921   0.809   0.871   0.862   0.925   0.898   1.097   1.026   0.897   0.989   0.934   1.084   1.088   1.024   1.126   1.035   1.086   0.924   1.128   1.093   1.048   1.162   1.084   1.050   1.041   0.973   1.097   1.110   1.167   1.097   1.011   0.845   1.007   0.976   1.042   1.103   0.941
   191.00    1.075   1.118   1.134   1.026   0.838   0.877   0.894   0.934   0.874   0.919   1.059   0.963   0.946   1.014   0.992   1.038   1.132   1.044   1.006   0.994   1.045   1.035   1.041   0.994   1.217   1.170   1.066   0.998   1.064   0.990   1.077   1.071   1.072   1.170   0.999   0.973   0.932   1.009   1.001   1.033   0.982
   181.00    0.926   1.027   0.880   0.919   0.896   0.818   0.847   0.854   0.986   1.000   0.987   0.993   0.929   1.021   0.980   1.149   1.125   0.981   0.975   1.066   0.938   1.045   0.982   0.925   1.123   1.229   1.118   0.893   1.052   0.826   1.013   1.031   1.085   1.158   1.093   0.879   1.109   1.098   1.062   1.063   0.981
   171.00    0.993   0.919   0.830   0.890   0.864   0.799   0.855   0.896   1.004   0.897   0.867   0.974   0.909   0.846   1.043   1.080   1.059   0.999   1.032   1.062   1.145   1.056   1.042   0.962   1.107   1.091   0.961   0.881   0.953   0.947   1.059   1.070   1.117   1.165   1.123   0.969   1.203   1.165   1.254   1.108   1.013
   161.00    0.978   0.834   0.857   0.932   0.932   0.879   0.890   0.955   0.911   0.936   0.912   0.942   0.953   0.940   1.078   1.097   1.088   0.886   1.017   1.071   1.111   1.093   1.086   0.939   1.041   0.995   1.046   1.002   0.875   0.926   1.111   1.056   1.183   1.142   1.134   1.154   1.238   1.314   1.209   1.097   1.081
   151.00    1.071   0.944   0.959   0.946   0.841   0.875   0.979   0.953   1.004   0.879   0.834   0.902   0.858   0.920   0.974   0.964   1.072   0.863   0.921   1.086   1.040   1.128   1.117   1.018   1.043   1.016   1.085   1.070   0.963   1.041   1.154   1.053   1.094   1.187   1.244   1.211   1.284   1.258   1.162   1.151   1.033
   141.00    0.966   1.034   0.945   0.899   0.978   0.963   0.957   0.921   1.103   0.994   0.959   0.959   0.952   0.814   0.850   0.938   0.988   0.913   0.981   1.112   1.052   1.068   1.084   0.915   0.935   0.985   0.991   0.940   0.952   1.048   1.213   1.017   1.103   1.251   1.099   1.170   1.247   1.279   1.195   1.174   1.161
   131.00    0.892   1.076   0.895   0.938   0.943   1.026   1.140   1.096   1.022   1.065   0.981   1.045   1.030   1.030   0.967   0.859   0.857   1.024   0.957   1.093   1.050   1.064   0.962   0.854   0.979   1.017   0.935   0.880   1.002   1.033   1.169   1.175   1.143   1.211   1.145   1.100   1.150   1.231   1.214   1.238   1.217
   121.00    0.984   1.096   1.036   0.982   1.113   1.047   1.054   1.079   0.997   1.066   0.922   1.031   1.027   1.029   0.911   0.954   1.019   1.000   0.962   1.093   1.075   1.047   0.949   0.807   1.015   0.936   0.985   1.016   1.113   1.074   1.196   1.054   1.031   1.036   1.147   1.177   1.187   1.208   1.200   1.156   1.077
   111.00    0.969   1.176   1.099   0.954   1.255   1.175   0.919   1.003   0.993   1.076   1.078   1.172   0.987   1.008   0.913   0.910   0.932   1.035   1.084   1.059   1.067   0.949   0.903   0.904   0.967   0.875   0.918   1.046   1.088   1.043   1.179   0.993   1.073   1.046   1.067   1.099   1.108   1.016   1.043   0.994   0.914
   101.00    0.946   1.124   1.049   1.047   1.186   1.105   0.982   0.925   1.028   1.083   1.188   1.177   0.992   0.975   0.986   1.096   1.054   1.083   1.141   1.105   0.945   0.911   0.782   0.912   0.868   0.897   0.932   0.996   0.964   0.971   1.053   1.048   1.088   0.929   1.091   1.086   1.113   1.020   0.973   0.927   0.906
    91.00    1.117   1.245   1.101   0.963   1.038   1.011   0.995   0.974   0.966   1.084   1.257   1.229   1.015   1.009   0.909   0.944   1.021   1.083   1.005   1.036   0.979   0.936   0.802   0.954   0.891   0.946   0.863   0.975   0.997   0.981   1.047   0.993   1.035   1.052   0.913   1.004   1.046   1.104   1.060   1.074   1.106
    81.00    1.063   1.149   1.050   0.986   1.014   0.938   0.922   0.846   0.873   1.068   1.299   1.208   0.967   1.060   0.958   0.904   0.982   1.018   1.029   0.973   1.044   1.008   0.924   1.012   0.992   0.892   0.857   0.934   1.003   0.931   0.971   1.028   1.043   1.016   1.008   0.958   0.996   0.945   0.987   1.160   1.248
    71.00    1.030   1.093   0.935   0.995   0.903   0.925   0.925   0.892   1.049   1.121   1.250   1.195   1.074   0.979   0.939   0.974   0.999   0.992   1.007   0.955   1.008   0.929   1.008   0.907   1.026   0.872   0.826   0.898   1.027   0.964   0.943   0.895   0.970   0.944   0.962   1.070   1.031   1.020   0.924   0.904   1.197
    61.00    1.007   1.104   1.075   0.920   0.952   0.902   0.893   0.921   1.025   1.108   1.279   1.214   1.166   1.046   1.055   1.017   0.984   1.006   0.929   1.036   1.040   0.937   0.968   0.935   0.924   0.897   0.915   0.973   0.925   0.895   0.826   0.913   0.890   0.935   0.917   1.045   1.085   1.009   1.048   1.132   1.203
    51.00    1.110   1.143   0.945   0.992   0.914   0.935   0.872   0.987   1.065   1.059   1.171   1.165   1.137   1.149   1.040   1.042   0.923   0.982   0.999   1.041   0.899   0.814   0.932   0.907   0.944   0.913   0.891   0.982   0.863   0.811   0.885   0.816   0.812   0.945   1.084   1.181   1.231   1.161   1.033   1.126   1.057
    41.00    1.030   1.024   0.989   0.963   0.873   0.878   0.908   0.982   1.088   1.040   1.170   1.136   1.089   1.129   0.910   0.765   0.831   0.881   1.036   1.087   0.911   0.874   0.880   0.886   0.950   0.960   0.841   0.922   0.814   0.819   0.870   0.954   0.967   1.016   1.112   1.129   1.190   1.127   1.094   1.001   0.989
    31.00    0.972   0.861   1.109   0.947   0.906   0.974   0.930   0.988   1.091   1.084   1.045   1.050   1.189   1.056   0.899   0.784   0.794   0.941   1.044   1.009   0.874   0.810   0.923   0.933   0.896   0.921   0.897   0.919   0.911   0.861   0.821   0.830   0.881   0.931   1.009   1.067   1.054   1.144   1.118   0.972   0.931
    21.00    0.960   0.828   1.093   1.064   1.111   1.016   0.916   1.009   1.021   1.076   0.966   1.034   1.109   1.174   0.867   0.820   0.760   0.882   0.907   1.018   0.983   0.932   0.960   1.030   0.991   0.887   0.909   0.945   0.877   0.861   0.726   0.842   0.825   0.992   0.989   1.028   0.955   1.054   1.035   0.917   0.910
    11.00    0.975   0.897   1.024   1.074   1.081   0.951   0.901   1.027   1.050   1.059   1.084   0.998   1.116   1.035   0.958   0.860   0.769   0.901   0.971   1.001   0.953   0.849   1.052   0.940   0.953   0.909   0.914   0.947   0.907   0.844   0.796   0.773   0.860   0.954   1.111   1.109   0.902   0.946   0.852   0.876   0.878
     1.00    0.963   1.100   0.965   0.991   1.075   0.968   0.972   0.975   1.053   1.135   0.991   0.980   1.071   0.978   0.960   0.951   0.947   0.855   0.924   0.965   0.918   0.873   0.973   0.928   0.979   0.991   1.043   0.850   0.824   0.853   0.810   0.767   0.813   0.986   1.007   1.096   1.027   0.855   0.785   0.759   0.876

   Height   Standard deviation at grid points for the v component:
   301.00    0.927   0.913   0.982   0.858   0.968   1.008   1.074   1.002   0.849   0.894   0.928   1.029   0.951   1.014   1.014   1.015   1.035   1.040   0.980   0.978   0.983   0.987   1.168   1.045   1.040   1.105   1.073   1.020   0.929   0.930   0.916   1.077   1.006   1.014   1.069   0.911   0.950   0.853   0.873   0.942   0.967
   291.00    0.890   0.898   0.891   0.940   0.920   0.987   1.016   1.014   0.893   0.912   0.933   1.016   1.008   0.921   1.022   0.968   1.036   1.014   1.029   0.986   1.049   1.056   1.123   1.035   1.100   1.088   1.079   0.854   0.896   0.970   0.987   1.122   1.072   1.033   1.014   0.952   0.984   0.769   0.810   0.851   0.926
   281.00    0.839   0.969   0.983   0.925   0.881   0.895   0.996   0.997   0.965   0.835   0.990   1.057   1.040   0.942   1.051   0.943   1.083   0.950   0.937   1.020   1.023   0.969   1.037   1.153   1.116   1.075   0.987   0.873   0.932   1.037   1.086   1.106   1.096   1.061   1.065   0.897   0.954   0.806   0.844   0.796   0.927
   271.00    0.863   0.916   0.926   0.948   0.888   0.934   0.937   0.970   0.842   0.868   0.934   1.020   1.077   1.030   0.952   1.011   1.079   0.961   0.975   1.028   0.992   1.003   0.982   1.158   1.031   1.071   1.069   0.886   0.882   1.004   1.055   0.966   1.099   1.071   1.151   0.994   0.905   0.883   0.853   0.832   1.011
   261.00    0.962   0.917   0.963   0.994   0.925   0.867   0.862   0.909   0.993   0.876   0.889   0.982   1.031   0.978   1.011   0.935   1.018   0.979   1.023   1.011   0.963   1.002   1.055   1.143   1.120   1.060   1.078   1.058   0.825   1.021   0.960   1.033   1.064   1.048   1.095   1.050   1.010   0.896   0.857   0.831   1.020
   251.00    0.965   0.928   0.926   0.961   0.881   0.926   0.890   0.881   1.011   0.913   0.876   0.982   0.992   0.885   1.003   0.931   0.981   1.017   0.956   0.961   0.965   0.963   1.011   1.054   1.040   1.046   1.003   1.020   1.040   0.994   1.080   0.968   0.973   0.965   1.100   1.080   0.928   0.903   0.840   0.961   1.022
   241.00    1.003   0.982   1.051   0.977   0.877   0.853   0.903   0.880   0.944   0.996   1.074   0.947   0.951   0.954   1.074   0.956   1.030   1.044   1.135   1.078   1.005   0.980   1.096   1.049   0.984   0.965   0.964   0.916   1.098   1.020   1.065   0.994   0.963   0.998   1.088   1.065   0.871   0.996   0.979   0.980   0.982
   231.00    1.143   0.980   1.046   1.018   0.958   0.957   0.907   0.929   0.875   1.050   1.055   1.029   0.986   0.902   0.924   1.030   0.953   1.047   1.020   1.086   1.105   0.994   0.996   1.101   1.010   1.049   0.960   0.978   1.045   0.959   1.037   1.093   0.923   1.016   1.059   0.982   0.928   0.975   0.898   0.966   1.093
   221.00    1.071   0.989   1.009   0.916   1.012   0.974   0.902   0.912   0.953   1.047   1.098   0.990   0.917   0.921   1.012   0.986   0.906   0.963   0.977   1.038   0.971   0.925   1.102   1.031   1.009   0.983   0.992   0.961   1.001   0.971   1.139   0.960   1.018   1.060   0.986   1.039   0.999   0.957   0.946   0.952   1.014
   211.00    1.030   0.954   0.936   0.879   0.927   0.887   0.898   0.955   1.105   1.053   1.038   0.967   0.980   0.945   1.037   1.033   0.892   0.963   0.902   0.984   0.974   0.993   0.995   1.096   0.979   0.912   0.972   0.941   1.045   0.999   1.040   1.000   0.965   0.990   1.022   1.129   1.009   1.056   0.941   0.948   0.942
   201.00    1.048   1.023   0.920   0.910   1.045   0.926   1.010   0.987   1.047   1.065   0.955   0.978   0.950   1.021   0.977   0.975   0.945   0.948   0.905   0.996   0.967   0.988   1.024   1.088   0.971   0.947   0.995   0.963   0.937   0.967   1.018   1.015   0.917   0.911   0.998   1.059   1.118   1.163   0.945   0.888   0.933
   191.00    0.957   1.031   0.907   0.926   1.008   0.906   0.963   0.933   0.993   0.998   0.941   0.981   0.964   1.037   1.068   0.989   0.983   0.917   0.917   0.881   0.946   1.064   1.188   1.163   1.066   1.076   1.053   0.902   0.955   0.976   1.015   0.957   1.047   0.890   0.944   0.905   1.018   1.003   1.034   0.865   0.945
   181.00    0.892   0.964   0.910   0.883   0.978   0.999   0.945   0.850   1.048   0.888   0.928   1.001   0.936   0.965   0.978   0.883   0.972   0.975   0.975   0.913   0.934   1.076   1.179   1.135   1.029   1.083   1.157   0.907   0.955   0.964   0.968   1.048   0.921   0.870   0.933   0.911   0.970   0.958   0.956   1.017   0.888
   171.00    0.830   0.933   0.919   0.918   1.010   0.959   1.034   0.879   1.018   0.938   0.915   0.923   0.928   0.955   0.949   0.952   0.968   0.913   0.881   0.916   0.911   1.103   1.070   1.116   1.082   1.056   1.108   1.094   1.026   1.014   0.986   0.928   0.815   0.854   0.905   1.010   1.003   0.882   0.954   0.904   0.937
   161.00    0.885   0.904   0.948   0.955   0.952   0.950   1.015   0.888   0.909   0.951   0.877   0.909   0.898   0.953   0.947   0.953   0.924   0.904   0.971   0.900   0.998   1.169   1.190   1.233   1.091   1.091   0.995   1.057   1.120   0.977   0.889   0.897   0.902   0.838   0.897   0.916   1.049   0.963   0.944   1.005   0.965
   151.00    0.963   1.011   0.884   0.916   0.908   0.907   1.019   1.068   0.997   0.984   0.982   0.895   0.909   0.978   0.936   0.921   0.835   0.911   0.878   0.975   0.996   1.112   1.249   1.220   1.084   1.084   1.055   1.039   1.065   1.010   0.873   0.936   0.825   0.854   0.941   0.992   0.992   0.947   0.947   0.944   0.929
   141.00    0.931   0.873   0.901   0.903   0.894   0.879   0.959   1.059   1.050   1.053   0.926   0.892   0.919   0.937   0.929   0.880   0.899   0.883   0.939   0.937   1.041   1.088   1.057   1.174   1.009   1.059   1.019   1.073   1.033   0.978   0.958   0.896   0.885   0.913   0.929   1.006   0.902   0.920   0.875   0.904   0.943
   131.00    0.829   0.858   0.836   0.806   0.874   0.774   0.936   0.988   0.915   0.979   0.892   0.857   0.920   0.896   0.973   0.928   0.802   0.919   0.914   0.981   1.038   1.041   1.024   1.103   1.036   1.084   1.109   1.180   0.986   0.999   0.926   0.940   0.984   0.951   1.036   0.964   0.951   0.926   0.877   0.969   0.895
   121.00    0.923   0.917   0.928   0.854   0.862   0.863   0.935   0.912   0.916   0.965   0.932   0.905   0.983   0.943   0.831   0.958   0.983   1.046   0.921   1.010   0.976   0.994   1.031   1.022   0.986   1.124   1.155   1.150   1.061   0.993   0.988   0.977   0.955   0.966   0.984   0.988   0.970   0.885   0.996   0.979   0.985
   111.00    0.894   0.975   1.032   0.957   0.888   0.916   1.052   0.892   0.962   0.947   0.895   0.900   0.932   0.829   0.808   0.862   0.988   1.015   0.960   1.066   0.968   1.017   1.014   1.048   1.029   1.108   1.185   1.165   1.106   0.897   1.071   0.945   0.915   0.944   0.886   0.993   0.955   0.924   0.935   1.000   0.983
   101.00    0.880   0.946   0.932   0.923   0.951   0.950   0.981   0.993   0.974   0.967   0.911   0.844   0.843   0.861   0.854   0.925   1.048   0.970   0.879   1.042   1.099   1.057   1.022   1.022   1.039   1.170   1.215   1.195   1.127   0.962   1.012   1.008   0.987   0.859   0.917   0.865   0.957   0.939   0.909   0.955   0.960
    91.00    0.972   0.984   0.966   0.936   0.908   0.913   0.936   0.935   0.958   0.888   0.806   0.834   0.858   0.937   0.890   0.948   0.978   1.032   0.981   0.912   1.092   1.046   0.994   1.058   1.075   1.162   1.227   1.169   1.098   1.020   1.021   1.121   0.898   0.908   0.889   0.822   0.918   0.858   1.026   0.933   0.981
    81.00    0.982   0.931   0.931   0.929   1.035   0.921   0.904   0.914   0.805   0.868   0.906   0.897   0.918   0.891   0.828   0.960   0.928   1.027   1.009   0.983   1.018   1.023   1.036   1.060   1.091   1.163   1.108   1.068   1.083   1.112   1.028   1.016   1.024   0.946   0.963   0.924   1.006   0.944   1.029   1.062   0.973
    71.00    0.974   0.975   1.005   1.055   0.989   0.975   0.932   0.884   0.851   0.847   0.867   0.861   0.854   0.947   1.028   0.993   0.988   0.890   0.955   0.916   0.995   1.084   1.035   1.074   1.105   1.041   1.112   1.140   1.008   1.070   1.089   0.910   0.928   0.961   0.932   0.906   1.034   0.942   0.957   1.003   0.918
    61.00    0.899   1.027   0.926   0.995   1.059   0.978   0.972   0.904   0.943   0.990   0.986   0.971   0.887   0.987   0.999   1.086   1.014   0.991   1.011   0.908   0.925   0.978   1.027   1.081   1.111   1.003   1.119   1.118   0.996   0.989   1.018   0.994   0.969   0.895   0.830   0.965   0.987   0.907   0.970   1.040   0.867
    51.00    1.028   0.939   0.901   0.996   1.042   1.018   0.901   0.891   0.910   0.931   0.953   0.969   0.971   1.008   1.114   1.151   1.114   0.995   0.994   1.032   1.010   0.946   0.954   0.955   1.014   1.043   1.092   1.099   0.973   0.978   1.057   1.021   0.976   0.985   0.891   0.865   0.921   1.020   0.934   1.036   0.988
    41.00    0.998   1.027   0.960   0.942   0.976   1.056   0.935   1.026   1.011   0.991   0.924   1.008   1.061   1.013   1.080   1.060   1.097   1.024   1.019   0.913   0.955   1.064   1.024   0.944   0.986   1.097   1.051   0.961   0.995   0.861   0.982   1.004   1.044   0.951   0.945   0.812   0.913   0.907   0.951   0.930   1.000
    31.00    0.963   0.955   0.937   0.973   0.980   0.985   1.031   0.889   0.910   0.974   0.967   0.994   1.031   1.003   0.946   1.095   1.013   1.027   0.957   0.875   0.993   0.991   0.935   0.979   0.996   1.041   1.082   1.069   0.906   0.937   0.902   1.002   1.056   0.926   1.011   0.864   0.881   0.885   0.916   0.943   0.993
    21.00    0.977   0.962   0.878   0.942   0.942   0.988   1.089   1.006   1.032   0.993   0.983   0.914   0.963   0.984   0.989   1.016   1.038   0.995   0.965   0.862   0.865   0.936   0.890   0.897   1.013   0.947   1.008   0.962   0.890   0.915   0.890   0.978   1.081   1.085   1.006   0.928   0.876   0.897   0.925   0.895   1.019
    11.00    0.972   0.895   0.831   0.913   1.000   0.934   0.936   0.984   1.038   0.926   0.879   1.014   0.907   0.912   0.880   1.047   1.038   0.983   0.869   0.956   0.872   0.927   0.800   0.938   1.047   1.053   0.975   0.950   1.015   0.948   0.961   1.048   1.145   1.087   1.032   0.985   0.862   0.873   0.944   0.971   0.917
     1.00    0.974   0.868   0.948   0.871   0.998   0.979   0.969   0.993   0.969   0.962   0.915   1.003   0.945   0.965   0.842   0.980   0.990   0.992   0.932   0.918   0.917   0.910   0.957   1.023   1.080   1.064   0.932   1.021   1.032   1.038   0.990   1.003   1.028   0.993   1.004   0.923   0.832   0.941   0.960   0.979   0.846

   Height   Standard deviation at grid points for the w component:
   301.00    1.071   1.028   0.966   1.018   0.954   1.012   0.949   0.993   1.045   1.039   0.884   1.019   1.024   0.995   0.776   0.821   0.900   1.051   0.969   0.973   1.069   0.958   0.828   0.875   0.865   0.933   1.030   0.983   0.936   0.823   0.832   0.875   1.035   1.036   1.006   1.193   1.124   1.156   1.274   1.053   1.022
   291.00    1.036   1.023   0.969   0.966   0.847   0.952   0.942   0.934   1.013   1.034   1.031   1.011   1.019   1.052   0.839   0.927   0.931   0.947   0.909   1.065   1.012   0.872   0.850   0.875   0.959   1.007   0.904   0.966   1.057   0.912   0.904   0.917   0.934   1.001   1.060   1.213   1.004   1.163   1.271   1.038   1.021
   281.00    0.977   1.012   1.037   0.896   0.901   0.958   1.029   0.865   0.985   1.008   0.985   1.078   1.120   1.031   1.005   0.920   0.895   0.845   0.889   0.934   0.949   0.930   0.974   0.957   1.010   1.019   0.907   0.931   0.984   0.930   0.945   0.959   0.932   1.020   1.051   1.155   1.111   1.220   1.192   1.004   0.937
   271.00    1.019   1.011   0.964   0.919   1.003   1.077   1.082   0.928   0.926   0.975   0.915   0.980   1.050   0.999   0.878   0.890   0.917   0.847   1.017   0.906   0.852   0.905   0.994   0.945   0.961   0.975   0.925   0.862   0.950   1.015   1.052   0.902   0.905   1.035   0.964   1.069   1.178   1.227   1.148   1.021   0.928
   261.00    0.985   0.901   0.961   0.914   1.008   1.096   1.047   1.035   1.029   0.968   0.859   0.934   1.020   1.089   0.914   0.861   0.904   0.979   1.049   1.061   1.016   1.106   0.979   0.962   0.934   0.894   0.882   0.906   0.924   0.948   1.016   0.863   0.914   1.026   1.033   1.044   1.217   1.237   1.146   1.014   0.966
   251.00    0.970   0.944   0.975   0.926   0.960   0.984   1.018   0.970   0.995   0.947   0.985   0.887   1.000   1.020   0.957   0.900   0.936   0.993   1.011   0.962   1.030   1.055   0.968   0.878   0.921   0.968   0.871   0.925   0.812   0.806   0.982   0.923   0.980   1.090   1.076   1.090   1.172   1.061   1.083   1.039   1.004
   241.00    1.004   0.977   0.967   0.865   0.932   0.927   0.973   0.906   0.894   0.849   0.865   0.882   0.974   0.930   0.962   0.823   0.961   0.977   1.021   0.981   1.008   1.006   0.862   0.937   0.911   1.034   1.086   0.870   0.850   0.922   0.986   0.983   0.967   0.975   1.146   1.163   1.204   0.953   1.021   0.983   1.049
   231.00    1.059   0.992   1.023   0.932   0.879   0.955   0.906   0.849   0.790   0.795   0.868   0.838   0.898   0.935   1.006   0.877   0.898   0.984   1.064   1.035   0.913   0.920   0.945   0.856   0.954   1.027   1.099   1.022   0.960   0.962   0.973   0.976   0.911   0.967   1.056   1.108   1.162   1.034   0.921   0.979   0.987
   221.00    1.011   1.000   1.053   0.882   0.976   0.955   0.914   0.893   0.869   0.831   0.921   0.878   0.850   0.892   0.968   0.927   0.835   0.965   1.044   1.072   0.925   0.991   0.886   0.882   0.867   0.942   1.025   0.997   0.949   0.986   0.889   0.956   1.018   0.985   1.060   1.113   1.025   1.033   0.797   0.919   0.885
   211.00    1.084   0.989   0.999   0.946   1.040   0.884   0.891   0.884   0.912   0.910   0.931   0.909   0.908   0.961   0.925   0.855   0.852   1.002   1.108   1.041   1.043   0.976   0.885   0.896   0.888   0.878   0.936   0.966   0.905   1.064   0.897   0.914   1.088   1.002   1.037   1.121   0.996   0.889   0.847   0.907   0.855
   201.00    0.999   0.992   0.878   0.925   1.001   0.980   0.956   0.865   0.934   1.034   1.019   0.976   0.972   0.947   0.877   0.864   0.903   0.904   1.059   1.084   1.006   1.043   1.011   0.981   0.866   0.976   0.937   0.956   0.933   1.080   1.046   0.931   1.038   0.931   0.906   1.020   0.959   0.925   0.944   0.885   0.864
   191.00    0.975   0.963   0.928   1.027   0.877   0.851   0.911   0.917   0.988   0.952   0.993   1.039   0.880   0.984   0.901   0.895   1.012   0.969   0.994   0.998   0.997   0.973   1.009   0.982   0.797   0.926   0.947   0.917   0.872   1.027   1.055   1.005   1.005   0.974   0.887   1.044   0.989   1.057   0.973   0.878   0.829
   181.00    0.920   0.847   1.000   1.000   0.940   0.866   0.904   0.997   0.953   1.056   0.928   1.082   1.006   0.989   0.935   0.959   0.924   0.834   1.009   0.914   1.000   1.080   0.998   1.000   0.994   0.960   0.849   0.868   0.849   1.023   1.046   1.112   1.096   1.055   0.939   1.065   1.054   0.939   1.005   0.888   0.862
   171.00    1.008   0.880   0.949   0.982   0.951   0.872   0.830   1.024   0.997   0.997   1.008   1.031   0.983   0.876   0.895   0.882   0.860   0.863   0.893   0.987   0.961   1.037   1.115   1.000   1.084   0.972   0.924   0.924   0.945   1.034   1.079   1.163   1.067   1.035   1.184   1.073   1.092   1.046   0.974   0.881   0.987
   161.00    1.027   1.008   0.972   0.969   0.983   0.928   0.879   0.984   1.085   1.025   0.975   0.949   0.961   0.909   0.814   0.898   0.905   0.871   0.850   0.871   0.972   0.979   1.106   1.031   1.061   1.057   1.009   0.908   1.044   1.025   1.114   1.141   1.086   1.040   1.096   1.085   1.028   1.045   1.008   0.927   1.007
   151.00    0.997   1.006   0.975   0.912   0.981   0.979   0.881   1.080   0.984   0.894   0.944   0.973   0.852   0.841   0.880   0.908   0.956   0.897   0.892   0.863   0.884   0.973   1.086   1.040   1.054   1.098   0.978   0.989   0.910   1.008   1.004   1.026   1.012   1.084   1.087   0.988   1.021   0.973   0.879   0.906   0.908
   141.00    0.987   0.986   0.988   0.977   0.900   0.944   0.971   0.980   0.904   0.910   0.969   0.888   0.909   0.880   0.845   0.833   0.944   0.837   0.842   0.953   0.882   0.917   0.936   1.010   1.049   1.000   0.959   0.988   0.876   0.962   0.941   1.015   0.938   0.978   0.975   0.902   0.929   0.928   0.874   0.876   0.921
   131.00    0.935   0.995   0.877   0.871   0.886   0.975   0.901   0.886   0.950   0.964   0.921   0.957   0.932   0.911   0.901   0.946   0.906   0.854   0.915   1.004   0.897   0.942   0.918   0.953   1.009   0.920   0.885   0.951   0.953   1.075   1.064   0.975   1.089   1.001   0.976   0.916   0.983   1.024   0.880   0.896   0.869
   121.00    0.941   0.950   0.869   0.896   0.996   0.900   0.903   0.897   0.885   0.880   0.979   0.908   0.956   0.833   0.899   0.937   0.819   0.820   0.899   0.898   0.970   1.013   1.025   1.075   1.084   1.012   0.965   0.936   0.972   1.020   1.087   0.993   1.024   1.127   1.057   0.981   0.982   1.009   0.918   0.935   1.015
   111.00    0.959   0.963   0.900   0.820   0.920   0.981   0.927   0.909   0.911   0.945   0.885   0.856   0.877   0.928   0.876   0.916   0.784   0.829   0.863   0.857   1.011   0.988   1.046   1.112   1.090   1.113   0.991   1.021   0.946   1.019   1.050   1.055   1.052   1.089   0.930   1.004   1.092   1.067   1.016   1.052   1.013
   101.00    1.028   1.020   0.978   0.844   0.777   0.983   0.979   0.927   0.895   0.996   0.892   0.874   0.947   0.948   0.898   0.851   0.907   0.887   0.895   0.991   0.975   1.044   0.949   0.970   1.000   1.017   0.937   0.984   0.918   1.012   1.031   1.117   1.155   0.995   0.951   1.049   1.095   0.960   1.045   1.029   0.984
    91.00    1.063   1.069   0.788   0.840   0.889   1.003   0.946   0.942   1.002   0.913   0.942   0.884   1.000   0.933   1.004   0.876   0.873   0.920   1.008   1.012   1.045   1.028   0.966   0.961   0.905   0.979   0.972   0.939   0.903   1.000   1.124   1.077   1.096   0.927   0.938   0.964   1.047   1.061   1.083   1.011   0.988
    81.00    1.080   1.055   0.919   0.964   0.899   0.996   1.003   1.067   1.058   0.943   1.012   0.977   0.979   0.867   0.970   0.857   0.827   0.981   1.036   1.051   1.043   0.945   1.022   0.970   0.911   0.912   0.912   0.971   0.895   0.962   0.982   0.997   0.888   0.883   0.906   0.929   1.009   1.034   1.026   1.025   0.980
    71.00    1.079   1.042   0.945   0.996   1.123   1.041   1.120   1.139   0.992   0.970   0.986   0.946   0.978   0.807   0.921   0.852   0.860   0.976   1.054   1.056   0.929   0.982   1.039   0.967   0.900   0.818   0.889   0.972   0.868   0.963   0.994   0.921   0.834   0.840   0.913   0.942   0.900   1.069   0.979   0.977   0.899
    61.00    1.164   1.080   1.003   0.992   1.116   1.130   1.112   1.053   0.969   0.933   0.978   1.007   1.023   0.890   0.951   0.847   0.840   0.972   1.068   1.053   0.957   0.964   1.048   1.067   0.992   0.890   0.955   1.066   0.966   0.995   0.977   0.970   0.971   0.890   0.976   0.833   0.781   1.000   0.956   1.072   1.008
    51.00    1.104   1.106   1.023   1.028   1.111   1.070   1.115   1.181   1.050   1.025   0.972   0.958   0.901   0.897   0.999   0.868   0.816   0.858   0.956   1.008   0.878   1.036   0.970   0.983   1.066   1.019   0.983   1.109   0.964   0.994   1.059   0.929   0.932   0.938   0.910   0.879   0.824   1.015   1.000   0.977   1.077
    41.00    0.986   1.089   1.100   1.123   0.996   1.102   1.058   1.170   1.119   0.974   1.042   0.936   0.918   0.906   0.950   0.914   0.911   0.828   0.892   1.015   1.022   0.937   0.904   1.016   1.054   1.147   1.037   1.083   1.038   0.957   0.904   0.894   0.898   0.975   0.920   0.892   0.886   0.957   1.010   0.920   1.054
    31.00    0.997   1.000   1.013   1.070   0.995   1.056   1.194   1.161   1.115   1.001   1.099   0.999   0.961   0.960   0.927   0.912   0.959   0.858   0.935   0.993   0.937   0.994   0.844   1.012   1.036   1.073   1.000   0.947   1.009   1.018   0.953   0.855   1.025   0.874   0.979   0.884   0.917   0.892   1.022   1.030   1.090
    21.00    0.898   0.927   1.007   1.032   1.096   1.094   1.263   1.168   1.034   1.008   0.983   0.907   0.871   0.865   0.985   0.896   0.943   0.976   0.940   1.003   0.968   0.940   0.946   0.995   1.061   1.031   0.992   0.889   0.986   1.063   0.977   0.952   1.013   0.956   0.903   0.845   0.974   1.035   1.099   1.102   0.968
    11.00    0.942   0.966   0.990   0.988   1.020   1.045   1.119   1.145   0.966   1.051   0.949   0.920   0.882   0.856   0.860   0.952   1.012   0.925   0.968   0.970   1.057   0.892   0.950   0.988   1.124   1.107   1.069   0.948   1.001   1.032   1.059   1.000   0.930   0.956   0.828   0.909   0.914   1.044   1.018   1.071   1.049
     1.00    0.974   1.033   0.921   0.914   0.968   0.990   1.073   1.103   1.045   1.085   1.008   0.901   0.834   0.878   0.911   0.991   0.975   0.949   1.035   1.043   1.043   0.919   0.984   1.019   1.074   1.073   1.039   1.037   0.977   0.991   1.043   0.985   0.961   0.965   0.895   0.939   0.891   0.874   0.964   1.025   0.955

   Mean standard deviation across all grid points:
      u component:    0.994 m/s
      v component:    0.976 m/s
      w component:    0.973 m/s


U-component (X) statistics from the interpolated hub point:

   Mean =  10.0066 m/s
   TI   =  10.3889 %


Processing complete.  9.9062 CPU seconds used.
