
This summary file was generated by TurbSim (from OpenFAST-v3.4.1) on 25-Nov-2024 at 22:24:12.


Runtime Options:

      2034  Random seed #1
         0  Random seed #2
         F  Output binary HH turbulence parameters?
         F  Output formatted turbulence parameters?
         F  Output AeroDyn HH files?
         T  Output AeroDyn FF files?
         F  Output BLADED FF files?
         F  Output tower data?
         F  Output HAWC FF files?
         F  Output formatted FF files?
         T  Output coherent turbulence time step file?
 0 -  NONE  IEC turbulence models scaled to exact specified standard deviation


Turbine/Model Specifications:

        31  Vertical grid-point matrix dimension
        41  Horizontal grid-point matrix dimension
     0.100  Time step [seconds]
   200.000  Analysis time [seconds]
   200.000  Usable output time [seconds]
   151.000  Hub height [m]
   300.000  Grid height [m]
   600.000  Grid width [m]
     0.000  Vertical flow angle [degrees]
     0.000  Horizontal flow angle [degrees]


Meteorological Boundary Conditions:

    IECVKM  IEC von Karman spectral model
         1  IEC standard: IEC 61400-1 Ed. 2: 1999
    10.000  Percent turbulence intensity, IEC 61400-1 Ed. 2: 1999
       NTM  IEC Normal Turbulence Model
       N/A  IEC Extreme Turbulence Model (ETM) "c" parameter [m/s]
       PL   Wind profile type
   150.000  Reference height [m]
    10.000  Reference wind speed [m/s]
       N/A  Jet height [m]
     0.100  Power law exponent
     0.030  Surface roughness length [m]


Non-IEC Meteorological Boundary Conditions:

       N/A  Site latitude [degrees]
       N/A  Gradient Richardson number
       N/A  Friction or shear velocity [m/s]
       N/A  Mixing layer depth [m]
       N/A  Mean hub u'w' Reynolds stress
       N/A  Mean hub u'v' Reynolds stress
       N/A  Mean hub v'w' Reynolds stress


Spatial Coherence Models:

       IEC  u-component coherence model
       IEC  v-component coherence model
       IEC  w-component coherence model
(   12.000, 0.659E-03)  u-component coherence parameters
(   12.000, 0.659E-03)  v-component coherence parameters
(   12.000, 0.659E-03)  w-component coherence parameters
       N/A  Coherence exponent


You have requested that the following file(s) be generated:

   ./TurbulentWind_20WT/FOWTs/Wind\InflowWind_High_WT10.bts (AeroDyn/TurbSim full-field wind file)


Turbulence Simulation Scaling Parameter Summary:

   Turbulence model used                            =  IEC von Karman
   Turbulence characteristic                        =  User-specified
   IEC standard                                     =  IEC 61400-1 Ed. 2: 1999
   Mean wind speed at hub height                    =   10.007 m/s
   Characteristic value of standard deviation       =    1.001 m/s
   Turbulence scale                                 =   21.000 m
   Isotropic integral scale                         =   73.500 m
   Characteristic value of hub turbulence intensity =   10.000%
   Gradient Richardson number                       =    0.000

   Wind profile type                                =  Power law
   Power law exponent                               =    0.100
   Mean shear across rotor disk                     =    0.016 (m/s)/m
   Assumed rotor diameter                           =  300.000 m
   Surface roughness length                         =    0.030 m

   Nyquist frequency of turbulent wind field        =    5.000 Hz

   Number of time steps in the FFT                  =     2600
   Number of time steps output                      =     2600
   Number of points simulated                       =     1271


Mean Flow Angles:

   Vertical   =   0.0 degrees
   Horizontal =   0.0 degrees

Mean Wind Speed Profile:

   Height    Wind Speed   Horizontal Angle  Vertical Angle  U-comp (X)   V-comp (Y)   W-comp (Z)
     (m)        (m/s)         (degrees)       (degrees)       (m/s)        (m/s)        (m/s)   
   ------    ----------   ----------------  --------------  ----------   ----------   ----------
    301.0       10.72            0.00            0.00         10.72         0.00         0.00
    291.0       10.69            0.00            0.00         10.69         0.00         0.00
    281.0       10.65            0.00            0.00         10.65         0.00         0.00
    271.0       10.61            0.00            0.00         10.61         0.00         0.00
    261.0       10.57            0.00            0.00         10.57         0.00         0.00
    251.0       10.53            0.00            0.00         10.53         0.00         0.00
    241.0       10.49            0.00            0.00         10.49         0.00         0.00
    231.0       10.44            0.00            0.00         10.44         0.00         0.00
    221.0       10.40            0.00            0.00         10.40         0.00         0.00
    211.0       10.35            0.00            0.00         10.35         0.00         0.00
    201.0       10.30            0.00            0.00         10.30         0.00         0.00
    191.0       10.24            0.00            0.00         10.24         0.00         0.00
    181.0       10.19            0.00            0.00         10.19         0.00         0.00
    171.0       10.13            0.00            0.00         10.13         0.00         0.00
    161.0       10.07            0.00            0.00         10.07         0.00         0.00
    151.0       10.01            0.00            0.00         10.01         0.00         0.00
    141.0        9.94            0.00            0.00          9.94         0.00         0.00
    131.0        9.87            0.00            0.00          9.87         0.00         0.00
    121.0        9.79            0.00            0.00          9.79         0.00         0.00
    111.0        9.70            0.00            0.00          9.70         0.00         0.00
    101.0        9.61            0.00            0.00          9.61         0.00         0.00
     91.0        9.51            0.00            0.00          9.51         0.00         0.00
     81.0        9.40            0.00            0.00          9.40         0.00         0.00
     71.0        9.28            0.00            0.00          9.28         0.00         0.00
     61.0        9.14            0.00            0.00          9.14         0.00         0.00
     51.0        8.98            0.00            0.00          8.98         0.00         0.00
     41.0        8.78            0.00            0.00          8.78         0.00         0.00
     31.0        8.54            0.00            0.00          8.54         0.00         0.00
     21.0        8.22            0.00            0.00          8.22         0.00         0.00
     11.0        7.70            0.00            0.00          7.70         0.00         0.00
      1.0        6.06            0.00            0.00          6.06         0.00         0.00


Harvested Random Seeds after Generation of the Random Numbers:

    855743394 Harvested seed # 1
   1971657505 Harvested seed # 2


Hub-Height Simulated Turbulence Statistical Summary:

   Type of Wind        Min (m/s)   Mean (m/s)    Max (m/s)  Sigma (m/s)       TI (%)
   ----------------    ---------   ----------    ---------  -----------       ------
   Longitudinal (u)         6.87        10.01        13.58        0.884        8.833
   Lateral (v)             -2.74        -0.00         2.87        0.850        8.491
   Vertical (w)            -3.75        -0.00         3.47        1.132       11.310
   U component              6.87        10.01        13.58        0.884        8.833
   V component             -2.74        -0.00         2.87        0.850        8.491
   W component             -3.75        -0.00         3.47        1.132       11.310
   Horizontal (U&V)         6.91        10.04        13.58        0.888        8.839
   Total                    6.91        10.10        13.72        0.899        8.900

                       Min Reynolds     Mean Reynolds    Max Reynolds    Correlation
   Product             Stress (m/s)^2   Stress (m/s)^2   Stress (m/s)^2  Coefficient
   ----------------    --------------   --------------   --------------  -----------
   u'w'                     -7.112            -0.349             3.422        -0.349
   u'v'                     -4.145             0.011             3.575         0.015
   v'w'                     -5.076             0.067             5.820         0.070


   Friction Velocity (Ustar)  =      0.591 m/s
   Maximum Instantaneous TKE  =      8.364 (m/s)^2
   Maximum Instantaneous CTKE =      4.423 (m/s)^2


Grid Point Variance Summary:

   Y-coord -300.00 -285.00 -270.00 -255.00 -240.00 -225.00 -210.00 -195.00 -180.00 -165.00 -150.00 -135.00 -120.00 -105.00  -90.00  -75.00  -60.00  -45.00  -30.00  -15.00    0.00   15.00   30.00   45.00   60.00   75.00   90.00  105.00  120.00  135.00  150.00  165.00  180.00  195.00  210.00  225.00  240.00  255.00  270.00  285.00  300.00

   Height   Standard deviation at grid points for the u component:
   301.00    0.930   1.028   1.072   1.080   1.083   0.935   0.971   1.039   1.012   0.971   0.948   0.947   0.942   1.010   1.005   0.984   0.952   1.019   0.844   1.019   1.018   0.992   0.940   0.892   0.950   0.966   0.811   0.917   0.787   0.880   0.910   0.951   1.075   1.166   0.939   0.874   0.991   1.077   0.924   0.801   0.963
   291.00    1.004   1.073   1.017   0.950   0.964   0.966   0.982   1.061   1.111   0.921   0.928   0.868   0.933   0.951   1.006   0.944   0.998   0.943   0.953   0.989   0.937   0.890   0.898   0.987   1.041   0.958   0.909   0.930   0.877   0.753   0.819   0.869   1.016   1.084   1.033   0.989   0.911   0.941   0.872   0.918   0.847
   281.00    1.024   1.060   0.985   0.924   0.989   1.010   0.920   1.110   1.008   0.936   0.883   0.838   0.817   0.853   0.960   1.006   1.016   0.904   0.990   1.002   0.937   0.772   1.030   1.009   1.061   1.022   0.939   0.848   0.985   0.869   0.846   0.919   0.855   1.031   1.138   0.891   0.910   0.951   0.861   0.912   0.870
   271.00    0.859   1.010   0.970   0.883   0.972   1.044   0.950   0.980   1.033   0.889   0.817   0.831   0.753   0.802   0.934   0.933   0.884   0.880   0.965   0.971   0.910   1.004   0.987   0.996   1.059   1.022   0.823   0.860   1.000   0.902   0.870   0.907   0.792   0.936   0.983   1.006   1.020   1.059   0.920   1.044   0.836
   261.00    0.828   1.036   0.904   0.988   1.037   1.069   1.072   1.019   0.905   0.885   0.715   0.845   0.875   0.826   0.927   0.857   0.897   0.897   0.848   0.976   0.953   0.953   1.018   1.091   1.078   0.937   0.808   0.857   1.041   0.910   0.952   0.846   0.825   0.880   0.966   1.036   1.106   1.040   0.973   0.919   0.911
   251.00    0.996   0.995   0.954   0.941   0.934   1.032   1.044   0.989   1.013   0.957   0.748   0.822   0.828   0.774   0.897   0.849   0.934   0.922   1.073   0.954   0.947   0.871   0.957   1.108   1.178   1.019   0.841   0.864   1.012   0.933   0.946   0.981   0.892   0.898   0.872   0.835   1.006   0.932   0.834   0.906   1.031
   241.00    0.943   1.024   0.964   1.065   0.973   0.907   1.027   0.975   0.960   0.868   0.835   0.841   0.790   0.703   0.871   0.864   0.928   1.030   0.959   0.880   0.922   1.038   1.057   1.156   1.140   0.951   0.869   0.971   0.948   0.822   0.997   0.984   1.059   0.847   0.811   0.849   0.893   0.872   0.864   0.951   1.135
   231.00    0.941   0.999   0.987   0.929   1.035   1.027   1.072   1.056   0.982   0.880   0.854   0.758   0.849   0.789   0.847   0.935   1.057   1.114   1.103   0.990   0.939   1.095   1.106   1.105   1.076   0.964   0.982   0.999   0.934   0.866   0.878   0.926   0.941   0.878   0.692   0.733   0.863   1.061   1.112   1.080   1.117
   221.00    1.005   1.004   0.949   0.916   0.984   0.992   0.910   0.957   0.964   0.899   0.946   0.888   0.749   0.770   0.841   0.863   1.111   1.075   1.009   1.016   0.940   1.106   1.117   1.184   1.183   0.984   0.958   0.983   0.805   0.876   0.799   0.868   0.876   0.841   0.744   0.830   0.901   0.991   1.091   1.219   1.184
   211.00    1.031   1.012   0.811   0.873   0.959   0.978   0.863   0.853   0.888   0.914   0.805   0.950   0.765   0.744   0.825   0.882   0.971   1.013   0.980   0.965   1.046   1.162   1.152   1.046   1.038   0.921   0.946   1.000   0.846   0.782   0.829   0.955   0.895   0.973   0.883   0.854   1.017   1.048   1.124   1.175   1.014
   201.00    0.972   0.876   0.868   0.932   0.895   0.859   0.924   0.957   0.959   0.874   0.864   0.882   0.786   0.818   1.026   0.923   0.911   0.895   0.917   1.131   1.112   1.029   1.039   0.956   1.014   0.952   0.926   0.907   0.890   0.988   0.976   1.010   1.019   1.020   0.916   0.860   1.034   1.099   1.081   1.089   1.091
   191.00    0.857   0.972   0.941   1.019   0.978   0.955   1.039   0.930   0.952   0.832   0.847   0.815   0.927   0.892   1.010   0.956   1.025   0.991   0.914   1.056   1.111   1.166   1.005   0.961   0.984   0.970   0.921   0.896   0.911   0.933   1.093   0.980   0.976   0.991   0.921   0.923   1.078   1.057   1.005   1.108   1.007
   181.00    0.975   0.994   0.912   1.046   1.158   1.046   0.899   0.970   0.930   0.954   0.897   0.845   0.806   0.982   1.104   1.098   1.022   0.934   0.838   0.995   0.929   1.010   0.984   0.842   0.990   0.908   0.893   0.957   0.972   1.028   0.972   0.988   0.926   0.923   0.900   0.959   0.983   1.015   1.057   0.989   1.079
   171.00    1.024   0.855   0.877   0.927   1.216   1.081   1.043   0.923   0.843   0.919   0.874   0.892   0.896   0.942   1.016   1.011   0.963   0.882   0.827   0.806   0.945   0.917   0.923   0.921   0.994   0.908   0.966   0.941   0.875   0.961   1.049   1.016   0.947   0.969   0.918   1.111   1.005   0.990   1.026   1.018   0.949
   161.00    0.890   0.946   0.965   1.001   1.219   1.207   1.067   0.922   0.955   0.911   0.911   0.956   0.795   0.907   1.034   0.955   0.998   0.774   0.758   0.930   0.878   0.854   0.972   0.889   0.975   0.890   0.934   0.826   0.897   0.932   0.933   0.977   0.926   0.961   1.011   1.082   1.242   1.014   1.084   0.986   0.985
   151.00    0.992   0.989   1.133   1.017   1.194   1.281   1.052   1.004   0.996   0.922   0.821   0.878   0.840   0.991   0.968   1.130   1.042   0.806   0.789   0.966   0.884   0.849   0.882   0.762   0.975   0.879   0.842   0.928   0.995   1.070   0.864   0.955   0.991   0.898   0.973   1.033   1.102   1.096   1.024   0.989   0.998
   141.00    0.967   0.968   1.117   0.975   1.090   1.164   1.071   1.071   1.020   0.862   0.891   0.795   0.975   0.974   1.016   1.105   0.914   0.813   0.990   1.101   0.875   0.953   0.903   0.925   0.950   0.968   0.921   0.994   1.013   0.963   0.942   0.993   1.051   0.875   0.944   0.968   1.062   1.110   1.018   1.027   0.966
   131.00    1.156   1.006   1.041   1.078   1.011   1.067   1.086   0.944   1.022   0.964   1.020   0.864   1.019   1.102   1.030   1.008   0.944   0.883   1.012   1.087   0.906   0.931   0.956   0.927   0.955   0.842   0.959   1.068   1.000   1.023   1.041   1.119   0.958   0.909   0.885   0.936   0.932   1.037   1.174   1.100   0.976
   121.00    1.170   1.139   1.079   0.926   0.923   1.001   1.033   0.943   1.104   1.001   1.020   0.941   1.013   0.942   1.079   0.983   0.931   0.897   1.056   0.965   1.075   0.959   0.928   0.961   0.987   0.900   0.884   0.994   1.011   1.057   1.114   1.004   0.930   0.875   0.879   0.945   0.880   0.917   1.113   1.075   1.114
   111.00    1.139   1.069   1.077   0.901   0.926   0.973   1.019   1.045   1.054   0.970   0.938   0.996   0.961   1.033   1.033   0.975   0.974   1.039   0.999   1.098   0.995   0.956   0.938   0.873   0.869   0.962   0.944   1.043   1.043   1.012   1.186   1.076   1.020   0.921   0.958   0.972   0.912   1.007   1.025   1.084   1.137
   101.00    1.061   1.042   0.992   0.954   0.961   1.132   1.132   1.039   1.065   0.859   0.832   1.008   0.942   1.018   0.910   0.990   0.921   1.068   1.081   1.046   0.919   0.941   0.939   0.994   0.870   0.892   0.952   1.033   1.135   0.930   1.132   1.050   1.013   0.915   0.922   1.025   0.991   0.920   1.041   1.071   1.028
    91.00    1.123   1.112   1.070   0.931   0.950   1.222   1.110   1.049   0.929   0.833   0.923   0.941   0.980   0.970   0.974   1.006   1.144   0.940   1.003   1.019   0.946   0.930   1.034   1.050   0.879   0.771   0.987   1.166   1.146   0.964   1.011   1.148   1.180   1.030   1.046   1.052   0.990   1.027   1.143   1.027   0.896
    81.00    1.003   1.033   0.991   1.045   1.268   1.131   1.091   1.094   0.933   0.973   1.140   0.906   0.854   0.823   0.958   1.054   1.116   1.122   1.000   1.040   0.928   0.971   1.071   0.998   0.933   0.907   0.962   1.130   1.218   1.081   0.980   1.203   1.265   1.142   1.096   1.102   1.119   0.937   1.029   0.918   0.901
    71.00    0.926   0.952   0.995   1.064   1.172   1.129   1.139   1.210   0.987   0.961   1.150   1.031   0.765   0.888   0.859   1.003   1.033   1.103   1.040   1.086   0.994   1.060   1.167   1.059   1.030   0.985   1.018   1.030   1.130   1.125   1.119   1.263   1.155   1.050   1.105   1.127   1.128   1.089   0.966   0.894   0.932
    61.00    1.008   1.029   1.018   0.984   1.092   1.179   1.117   1.161   1.190   1.101   1.217   1.065   0.933   0.913   0.888   0.920   0.935   0.914   1.072   1.099   1.043   1.176   1.162   1.042   1.085   1.087   1.137   1.107   1.151   1.038   1.110   1.182   1.157   1.135   1.020   1.020   1.031   1.029   0.972   0.945   0.802
    51.00    0.923   0.874   0.856   0.934   0.982   1.090   0.979   1.129   1.110   1.070   1.099   1.066   0.852   0.867   0.734   0.877   0.797   0.889   1.122   1.110   1.085   1.189   1.313   1.200   1.083   1.143   1.261   1.292   1.193   1.078   1.004   1.102   1.156   1.098   0.934   1.012   1.109   0.979   0.935   0.981   0.927
    41.00    0.930   0.810   0.861   0.928   1.001   1.033   0.984   1.000   1.005   1.210   1.073   0.902   0.870   0.797   0.930   0.959   0.880   0.882   0.969   1.017   1.100   1.297   1.315   1.288   1.023   1.048   1.184   1.262   1.018   0.976   1.167   1.155   1.288   1.100   1.063   0.928   1.069   1.071   0.888   0.888   0.912
    31.00    0.952   0.910   0.852   0.919   1.045   0.976   0.996   1.037   1.042   1.099   1.033   0.864   0.906   0.826   1.018   0.923   0.981   0.895   0.908   0.908   1.088   1.149   1.118   1.105   1.210   1.104   1.109   1.125   0.917   1.146   1.193   1.117   1.192   1.161   1.129   1.011   1.020   0.990   0.856   0.829   0.894
    21.00    0.978   0.960   0.857   0.924   0.976   0.993   1.058   0.945   0.959   0.988   1.020   0.830   0.958   0.823   0.926   1.014   0.985   0.844   0.882   0.917   1.011   1.122   1.079   1.226   1.259   1.130   0.992   1.006   1.018   1.098   1.118   1.207   1.090   1.124   1.143   0.958   1.097   0.962   0.940   0.961   0.890
    11.00    0.945   1.023   0.875   0.908   0.929   0.924   1.075   0.957   0.863   1.022   0.931   0.871   0.965   0.901   0.875   0.924   0.971   0.869   0.810   0.869   0.984   1.224   1.058   1.153   1.189   1.146   1.103   0.970   1.002   1.151   1.027   1.014   0.904   1.048   1.180   1.138   1.063   1.033   0.987   0.926   0.858
     1.00    0.963   0.954   1.005   0.919   0.851   0.840   0.928   1.033   0.944   0.936   1.032   0.923   1.022   0.904   0.854   0.883   0.952   0.979   0.751   0.874   1.049   1.098   1.120   1.059   1.031   0.994   1.071   0.906   0.994   1.017   1.011   0.990   0.938   0.957   1.118   1.159   1.030   1.023   1.029   0.936   0.998

   Height   Standard deviation at grid points for the v component:
   301.00    1.107   1.088   1.002   1.019   0.949   0.867   0.832   0.916   0.940   0.930   0.843   0.944   0.909   0.956   0.959   0.879   0.979   0.995   0.989   0.935   1.024   0.976   1.057   1.163   1.112   1.125   1.006   1.005   0.857   0.901   1.025   1.004   0.944   0.979   0.955   0.891   0.896   0.957   0.943   0.929   0.853
   291.00    1.075   1.093   1.054   1.037   1.023   0.861   0.888   0.883   0.927   0.929   0.954   0.886   0.918   0.951   0.973   0.893   0.967   0.854   0.916   1.029   1.022   1.006   0.901   1.109   1.181   1.107   0.985   1.043   0.953   0.931   1.051   0.858   0.891   0.852   0.899   0.873   0.968   0.921   0.947   0.913   0.892
   281.00    0.970   0.969   1.066   0.936   0.947   0.884   0.894   0.891   0.920   1.018   0.983   0.886   0.925   0.959   0.941   0.913   0.920   0.862   0.954   1.033   1.105   1.076   0.974   1.061   1.111   1.102   0.966   0.995   1.000   0.945   0.925   0.888   0.960   0.824   0.836   0.802   0.958   0.996   0.937   0.927   0.949
   271.00    1.046   1.018   1.077   0.971   0.886   0.857   0.897   0.918   0.861   0.988   0.925   0.937   0.929   0.856   0.875   0.875   0.828   0.798   0.944   1.041   0.936   1.002   0.921   1.144   1.062   1.036   1.065   0.921   0.857   0.896   0.920   0.918   0.877   0.842   0.871   0.812   0.895   0.880   0.867   0.905   0.880
   261.00    0.969   0.970   0.946   0.930   0.899   0.925   0.895   0.977   0.889   0.972   0.970   0.892   1.028   0.923   0.858   0.878   0.881   0.893   0.895   1.003   1.009   1.061   1.040   1.043   1.127   1.095   1.027   0.938   0.839   0.858   0.863   0.935   0.838   0.832   0.855   0.893   0.913   0.874   0.800   0.828   0.919
   251.00    0.982   1.039   0.941   0.866   0.919   0.847   0.871   1.004   0.976   0.976   0.966   0.947   0.981   0.894   0.939   0.923   1.025   0.948   0.999   0.992   0.969   0.949   1.008   1.138   1.151   1.012   1.047   0.996   0.964   0.930   0.879   0.886   0.903   0.939   0.896   0.932   0.943   0.926   0.801   0.747   0.821
   241.00    0.926   0.921   0.955   0.845   0.848   0.875   0.955   0.997   1.023   0.918   0.915   0.904   0.932   0.919   0.914   0.904   0.954   0.997   0.974   0.957   0.915   0.974   1.004   1.006   1.077   1.009   0.959   1.002   0.976   0.953   0.956   0.904   0.888   1.016   0.951   0.910   0.890   0.924   0.806   0.844   0.841
   231.00    0.953   1.000   0.901   0.931   0.913   0.883   0.930   0.908   0.922   0.819   0.872   0.915   0.919   0.896   0.875   0.831   0.886   0.902   0.973   1.034   1.025   1.049   0.897   0.955   0.944   0.979   0.991   0.965   1.009   0.809   0.899   0.862   0.914   0.926   1.000   0.940   0.944   0.944   0.900   0.872   0.925
   221.00    0.895   0.971   0.922   0.921   0.912   0.867   0.974   0.961   0.914   0.896   0.955   0.943   0.734   0.922   0.908   0.871   0.901   0.925   0.922   0.972   1.125   0.995   0.954   0.824   0.988   0.982   0.988   1.019   1.056   0.953   0.897   0.874   0.980   0.988   0.936   0.855   0.979   1.019   0.990   0.847   0.873
   211.00    0.907   0.951   0.889   0.930   0.919   0.844   0.884   0.918   0.899   0.948   0.948   0.988   0.833   0.900   0.877   0.917   0.874   0.932   0.836   0.982   0.992   1.051   0.850   0.858   0.878   0.971   0.906   0.915   1.017   1.032   0.930   0.979   1.048   0.904   0.896   0.945   0.966   1.099   0.947   0.918   0.950
   201.00    0.903   0.939   0.986   1.014   0.890   0.859   0.824   0.891   0.834   0.975   0.955   0.925   1.006   0.896   0.892   0.936   0.941   0.999   1.021   0.991   0.934   0.977   0.936   0.958   0.889   0.942   0.972   1.038   0.965   0.939   1.054   1.074   0.999   0.948   0.906   0.970   0.930   0.942   0.907   0.916   0.929
   191.00    0.888   0.866   0.956   0.996   0.997   0.927   0.861   0.854   0.872   0.984   0.884   0.936   0.957   0.928   0.883   0.934   0.913   0.896   0.981   1.038   0.933   0.950   0.848   0.932   0.887   1.011   1.078   1.134   0.956   0.994   0.998   0.988   0.951   0.967   0.894   0.879   0.869   0.865   0.912   0.926   0.941
   181.00    0.900   0.938   0.893   0.906   0.897   0.817   0.884   0.864   0.873   0.885   0.875   0.994   0.916   0.993   1.009   0.924   0.825   0.912   0.963   0.991   0.970   0.898   0.824   0.847   0.915   0.907   1.072   1.006   0.962   0.910   0.918   1.014   0.948   0.911   0.937   0.839   0.901   0.868   0.897   0.935   0.936
   171.00    0.923   0.944   0.971   0.776   0.792   0.907   0.822   0.813   0.842   0.928   0.955   0.919   0.934   1.000   1.013   0.875   0.922   0.944   0.976   0.944   0.922   0.913   0.912   0.845   0.872   0.918   1.003   0.973   0.928   0.906   0.906   0.935   0.981   0.971   1.037   0.903   0.957   0.999   0.946   0.990   0.937
   161.00    0.870   0.948   0.946   0.838   0.902   0.876   0.866   0.913   0.840   0.890   0.877   0.855   0.859   0.956   0.976   0.937   0.982   0.973   0.933   0.965   0.858   0.832   0.841   0.948   0.930   0.946   0.945   0.976   1.003   0.953   0.844   0.873   0.915   0.920   1.029   0.918   1.072   0.957   0.923   0.908   1.001
   151.00    0.930   0.971   0.959   0.905   0.822   0.928   0.892   0.892   0.870   0.830   0.956   0.940   0.918   0.909   1.004   1.063   0.974   0.951   0.942   0.836   0.850   0.835   0.887   1.038   0.836   0.953   0.972   0.925   0.986   0.936   0.855   0.854   0.829   0.924   0.973   1.044   1.083   0.992   0.956   0.893   0.903
   141.00    0.897   0.967   0.885   0.958   0.874   0.869   0.960   0.929   0.935   0.925   0.972   0.871   1.013   0.954   0.967   0.948   0.928   0.991   0.958   0.975   0.899   0.897   0.943   0.949   0.871   0.958   1.013   0.896   0.993   0.929   0.884   0.934   0.820   0.970   0.975   0.998   1.068   1.044   1.072   0.948   1.049
   131.00    0.970   0.999   0.934   1.008   0.866   0.943   0.866   0.822   0.922   0.949   0.922   0.920   0.987   1.005   1.006   0.960   0.842   0.938   0.904   0.909   0.775   0.881   0.921   0.996   0.959   1.072   1.015   0.895   1.023   0.994   0.909   0.841   0.961   1.018   0.919   0.999   1.003   0.979   1.031   1.013   0.965
   121.00    0.916   0.952   0.941   0.981   0.900   0.951   0.898   0.850   0.945   0.960   0.901   1.048   1.021   0.955   0.980   0.893   0.938   0.940   1.066   1.047   0.869   0.871   0.840   0.950   1.060   1.077   1.034   0.967   1.046   0.974   0.896   0.884   0.979   0.981   0.984   1.019   1.031   0.899   0.972   1.010   1.028
   111.00    0.929   0.933   0.999   0.898   0.883   0.989   0.930   0.882   0.886   0.903   0.860   1.010   0.976   1.019   0.935   0.927   0.816   0.844   1.005   1.027   0.872   0.890   0.936   1.053   1.059   1.135   1.099   1.046   1.165   1.021   0.977   0.919   0.950   0.987   0.959   0.948   1.004   0.939   0.952   0.912   0.941
   101.00    0.956   0.878   0.962   0.916   0.959   0.986   0.899   0.919   0.962   0.915   0.909   1.002   1.055   1.049   1.033   0.910   0.875   0.897   0.971   0.930   0.911   0.885   0.992   1.109   1.220   1.101   1.019   1.134   1.101   1.013   1.019   0.978   0.967   0.937   1.001   0.955   0.932   0.945   0.933   0.946   0.940
    91.00    0.917   0.902   0.921   0.951   0.992   0.909   0.910   0.863   0.941   0.876   0.912   0.995   1.002   1.077   0.988   0.867   1.013   1.042   0.955   0.956   0.955   0.958   0.987   1.140   1.222   1.074   0.990   1.075   1.044   1.021   0.944   1.026   0.922   0.928   0.919   0.880   0.877   0.887   0.937   0.968   1.010
    81.00    0.807   0.923   0.881   0.944   0.879   0.867   0.927   0.863   0.883   0.899   0.944   0.953   1.027   1.054   1.038   1.010   1.107   1.046   0.985   0.881   0.951   0.941   0.925   1.117   1.232   1.016   1.120   1.132   1.088   1.016   0.991   1.009   1.008   0.969   0.892   0.929   0.869   0.756   0.837   0.885   0.931
    71.00    0.900   0.831   0.922   0.912   0.868   0.805   0.888   0.837   0.878   0.856   0.951   0.971   1.118   0.984   1.070   1.075   1.026   1.033   0.910   0.881   0.882   0.952   1.069   1.083   1.104   1.003   1.071   1.128   1.154   1.160   1.042   0.937   0.945   0.936   0.858   0.889   0.847   0.758   0.899   0.905   0.982
    61.00    0.916   0.839   0.942   0.876   0.838   0.865   0.877   0.816   0.859   0.913   0.974   0.921   1.060   1.058   1.018   0.970   0.953   0.996   0.978   0.923   0.934   0.989   1.122   1.120   1.075   1.122   1.115   1.146   1.086   1.265   1.057   0.952   0.975   0.894   0.919   0.901   0.902   0.769   1.008   0.980   1.028
    51.00    0.922   0.931   0.918   0.932   0.993   0.848   0.863   0.909   0.810   0.972   0.953   0.902   0.981   0.991   0.914   0.937   0.888   0.977   1.018   0.956   0.897   0.966   1.062   1.160   1.079   1.100   1.158   1.046   1.124   1.132   0.925   0.913   0.867   0.966   0.873   0.916   0.822   0.872   0.873   0.956   0.963
    41.00    0.866   0.883   0.883   0.891   0.868   0.864   0.817   0.819   0.875   0.976   1.065   1.099   0.964   0.931   0.883   0.839   0.968   0.955   0.941   0.869   0.780   0.893   1.060   1.148   1.119   1.135   1.071   1.139   1.175   0.986   0.877   0.908   0.915   0.906   0.973   0.895   0.876   0.872   0.848   0.910   0.874
    31.00    0.926   0.925   0.945   0.924   0.930   0.856   0.857   0.847   0.881   0.916   1.031   1.113   0.951   0.877   0.843   0.869   0.926   0.966   0.970   0.932   0.862   0.960   0.948   1.055   1.057   1.180   1.065   1.105   1.139   0.882   0.835   0.831   0.944   0.868   0.943   0.800   0.838   0.961   0.937   0.944   0.945
    21.00    0.948   1.011   0.918   0.966   0.845   0.864   0.880   0.879   0.863   0.999   1.003   1.008   0.944   0.834   0.942   0.940   0.880   0.949   1.010   0.968   0.877   0.875   0.945   1.004   1.044   1.009   0.952   1.010   1.089   0.932   0.876   0.860   0.967   0.951   0.861   0.806   0.879   0.933   0.999   0.947   0.945
    11.00    0.993   0.969   0.881   0.913   0.869   0.929   0.899   0.989   0.919   0.999   0.912   0.888   0.945   0.905   0.869   0.915   1.033   0.904   0.926   0.876   0.855   0.849   0.925   0.979   0.939   0.953   0.925   0.985   1.027   0.983   0.866   0.867   0.968   0.865   0.824   0.855   0.886   0.839   0.927   0.971   0.900
     1.00    0.974   1.058   1.031   0.935   0.889   0.963   0.959   0.943   1.014   0.971   1.011   0.983   0.981   0.980   0.966   1.019   1.082   1.093   0.888   0.880   0.860   0.905   0.876   0.853   0.895   0.808   0.884   0.856   0.906   0.926   0.855   0.916   0.896   0.923   0.880   0.863   0.951   0.996   0.993   1.032   0.894

   Height   Standard deviation at grid points for the w component:
   301.00    1.066   1.055   1.046   0.910   0.926   0.917   0.777   0.905   0.981   0.845   0.903   0.902   0.831   0.855   0.850   0.849   0.940   0.994   0.885   0.794   0.953   0.826   0.884   0.931   0.953   1.056   1.050   0.947   1.050   1.056   1.019   1.045   1.189   1.233   1.133   1.074   0.931   1.025   0.967   1.049   1.093
   291.00    1.058   1.010   1.029   0.926   0.865   0.841   0.839   0.908   0.904   0.883   0.880   0.967   0.886   0.794   0.799   0.893   0.974   0.985   0.984   1.034   0.966   0.955   0.829   0.880   0.902   0.953   0.929   0.964   0.979   0.975   1.018   1.006   1.117   1.148   1.057   1.017   1.047   1.029   0.932   0.985   1.084
   281.00    1.003   0.981   0.983   1.032   0.879   0.914   0.911   0.938   0.903   0.893   0.856   0.904   0.937   0.871   0.820   0.908   1.011   1.125   1.096   0.999   1.064   0.889   0.813   0.851   0.906   0.868   0.943   0.990   0.971   0.945   0.979   1.016   1.047   1.048   0.907   0.986   1.019   0.943   1.060   1.014   1.053
   271.00    0.945   1.077   1.078   1.047   0.925   0.871   0.844   0.870   0.885   0.864   0.946   0.903   0.948   0.764   0.890   1.007   1.063   1.106   1.062   0.964   1.025   0.973   0.780   0.859   0.890   0.926   1.033   0.990   1.025   0.903   0.926   1.033   1.077   1.062   0.974   0.960   0.983   0.961   1.065   1.050   1.038
   261.00    1.006   1.096   1.112   1.073   1.056   0.942   0.891   0.871   0.827   0.930   0.843   0.937   0.918   0.852   0.894   0.976   1.112   1.048   0.994   0.860   0.965   1.062   0.937   0.805   0.972   0.948   1.037   0.976   0.982   0.939   0.985   1.130   0.993   1.037   0.953   0.942   0.926   1.006   0.901   1.055   0.951
   251.00    1.038   1.034   1.112   1.089   1.017   0.985   0.947   0.817   0.781   0.932   0.890   0.899   0.808   0.876   0.952   1.068   1.080   1.005   1.024   0.950   0.987   1.053   0.921   0.900   0.963   0.899   0.985   0.955   0.980   1.062   0.949   1.029   1.001   1.073   0.981   1.017   0.877   0.920   0.931   1.039   0.946
   241.00    1.024   0.980   1.019   1.002   1.007   0.949   0.947   0.890   0.869   1.011   0.897   0.891   0.880   0.961   1.016   1.046   1.030   1.069   1.093   0.953   0.991   1.061   1.012   0.904   0.989   0.900   0.935   0.903   0.980   1.022   0.955   1.074   1.177   1.011   0.903   0.913   0.877   0.957   0.876   0.939   0.973
   231.00    1.003   0.953   1.006   0.968   1.030   0.912   0.872   0.848   0.872   0.948   0.911   0.850   0.883   0.963   0.968   0.959   1.057   1.190   1.110   1.117   0.929   1.045   0.935   0.890   0.856   0.985   0.966   1.036   1.030   0.971   0.888   1.010   1.045   1.054   0.947   0.881   0.981   0.980   0.915   0.794   0.976
   221.00    0.944   0.879   1.055   1.021   1.036   0.981   0.958   0.929   0.886   0.922   0.899   0.918   0.917   0.926   0.954   0.949   1.008   1.011   1.089   1.154   0.904   1.045   1.061   0.962   0.825   0.887   0.940   0.976   0.893   0.877   0.920   0.909   1.033   1.092   0.959   0.902   0.977   0.888   0.925   1.021   0.953
   211.00    0.870   0.965   0.952   0.929   0.915   1.040   0.932   0.914   1.044   1.106   0.960   1.061   0.932   0.902   0.900   0.941   0.995   1.025   1.045   1.119   1.024   1.121   1.034   1.045   0.979   0.823   0.975   0.860   0.843   0.872   0.908   0.958   1.014   1.024   0.941   0.922   0.918   0.877   0.832   0.943   0.944
   201.00    0.914   0.907   0.915   0.918   0.898   0.939   0.880   0.985   1.021   1.060   1.086   1.051   1.070   0.994   0.943   0.948   1.029   0.959   0.995   1.062   1.144   0.975   1.024   1.003   0.965   0.958   0.964   0.899   0.909   0.886   0.872   0.927   1.031   0.985   0.934   0.761   0.920   0.890   0.872   0.886   0.946
   191.00    1.042   0.895   0.993   0.875   0.883   0.844   0.920   0.923   0.992   1.069   1.126   1.029   1.055   1.051   0.969   0.986   1.011   1.027   0.976   1.105   1.042   0.933   0.944   0.995   0.874   0.912   0.971   0.918   0.960   0.942   0.926   0.902   1.038   0.917   0.951   0.880   0.810   0.913   0.853   0.907   0.941
   181.00    0.977   0.909   0.955   0.960   0.914   0.886   0.871   0.931   0.996   1.011   1.053   1.080   1.113   1.090   1.024   1.063   1.017   1.056   1.090   1.167   1.019   0.962   1.033   1.050   0.863   0.944   0.901   0.909   0.925   0.941   0.932   0.843   1.062   0.981   0.981   0.931   0.866   0.854   0.841   0.859   0.946
   171.00    0.928   0.923   0.943   0.981   0.893   0.940   0.949   0.941   0.930   0.995   1.136   1.028   1.102   1.019   1.036   1.007   1.155   1.034   1.078   1.045   1.023   1.031   0.977   0.924   0.883   0.920   0.925   0.932   0.883   0.943   1.021   1.029   1.130   1.011   1.050   0.954   0.889   0.897   0.778   0.895   0.947
   161.00    1.075   1.000   0.905   0.994   1.020   0.927   1.021   0.955   0.855   1.018   1.076   0.999   1.120   1.139   1.044   1.004   1.060   1.200   1.031   0.939   1.065   1.056   0.923   0.922   0.875   0.970   0.937   0.868   0.900   0.934   1.046   1.040   1.030   1.113   1.021   0.908   0.819   0.873   0.865   0.870   0.931
   151.00    0.983   0.906   0.927   0.939   0.925   0.985   0.897   1.012   1.033   1.018   1.038   1.025   1.083   1.084   1.136   1.181   1.106   1.050   1.088   1.059   1.132   1.166   1.029   0.907   0.906   0.941   0.951   0.944   0.944   0.919   0.944   1.118   1.102   1.029   1.002   0.843   0.874   0.873   0.873   0.854   0.903
   141.00    0.906   0.902   0.932   0.947   0.951   1.012   0.930   1.002   1.006   0.997   1.090   0.954   1.045   1.081   1.096   1.099   1.103   1.072   1.033   1.052   1.163   1.146   0.936   0.994   0.875   0.921   0.895   0.947   1.020   0.867   1.009   1.106   1.085   0.992   1.009   0.924   0.861   0.907   0.929   0.856   0.880
   131.00    0.899   0.910   0.934   0.983   0.971   1.002   0.947   1.007   1.247   1.099   1.202   1.009   1.102   1.135   1.030   1.136   1.128   1.047   1.138   1.143   1.129   1.033   0.904   0.999   0.937   0.907   0.931   0.930   0.934   0.941   0.972   1.073   0.976   0.974   0.954   0.886   0.906   0.824   0.909   0.954   0.981
   121.00    0.956   0.904   0.938   0.989   0.913   0.954   1.006   1.037   1.153   1.230   1.193   1.075   1.124   1.207   1.143   1.052   0.958   1.078   1.123   1.035   1.113   1.060   0.919   0.934   1.053   1.023   0.967   0.982   0.978   1.032   1.043   0.960   0.912   0.905   1.004   0.866   0.838   0.877   0.894   0.906   0.882
   111.00    0.950   0.917   0.991   1.011   0.914   0.998   0.992   1.042   1.137   1.169   1.172   1.202   1.193   1.142   1.232   1.189   1.020   0.998   1.032   1.037   1.087   1.093   0.967   1.022   1.104   1.037   1.034   0.991   1.007   0.982   0.957   0.973   0.849   0.880   0.932   0.908   0.853   0.944   0.848   0.892   0.846
   101.00    0.928   0.947   1.053   1.040   1.065   1.006   0.994   1.109   1.120   1.220   1.269   1.153   1.101   1.127   1.165   1.191   1.100   1.036   1.005   1.042   1.028   1.032   0.973   1.028   1.130   1.016   1.146   1.133   0.998   0.953   0.936   0.923   0.897   0.860   0.879   0.828   0.792   0.945   0.941   0.840   0.987
    91.00    0.965   0.947   0.944   1.009   0.935   0.994   1.057   1.050   1.280   1.267   1.224   1.024   1.063   1.097   1.116   1.222   1.093   0.988   1.008   0.970   1.009   0.939   0.916   1.043   1.079   0.939   1.067   1.141   1.167   1.135   1.008   0.957   0.838   0.843   0.837   0.755   0.823   0.892   0.860   0.855   0.956
    81.00    1.056   0.926   0.924   0.958   0.855   0.987   1.103   1.124   1.250   1.069   1.180   1.086   1.045   1.085   1.205   1.130   1.095   1.001   1.055   1.031   1.023   0.944   0.851   1.031   0.976   0.988   0.925   1.122   1.177   1.097   1.068   1.045   0.931   0.902   0.835   0.779   0.824   0.831   0.865   0.891   0.957
    71.00    1.073   0.912   0.901   0.944   0.906   0.950   1.088   0.997   1.086   1.192   1.100   1.133   1.097   1.103   1.105   1.041   1.054   1.011   0.984   0.929   0.936   0.920   0.949   0.961   0.977   0.986   1.057   1.053   0.978   0.990   1.041   0.951   1.011   0.952   0.868   0.785   0.837   0.904   0.806   0.891   0.950
    61.00    1.025   0.927   0.920   0.907   0.885   0.912   0.970   1.047   1.001   1.094   1.205   1.055   1.033   1.081   0.986   1.029   1.063   0.915   0.948   0.873   1.015   0.975   0.982   0.989   0.938   0.963   0.922   1.001   0.925   0.905   0.919   0.948   1.110   1.011   0.884   0.849   0.885   0.925   0.882   0.954   1.021
    51.00    0.938   0.921   1.006   1.015   0.918   1.022   0.975   0.952   1.050   1.020   1.091   1.055   0.975   0.996   0.914   1.077   0.991   0.964   1.017   0.849   1.004   1.011   0.998   1.010   0.917   0.964   0.909   0.846   0.902   0.833   0.863   0.926   0.985   1.008   0.973   0.990   0.982   0.950   0.880   0.908   1.014
    41.00    0.957   0.928   0.983   1.028   1.023   1.001   0.997   0.958   0.973   0.964   1.022   1.108   1.025   0.971   1.067   1.104   0.982   0.985   1.012   0.958   0.886   0.958   1.026   1.097   1.105   0.964   0.859   0.874   0.818   0.966   0.841   0.923   1.060   1.086   0.993   1.027   0.976   0.950   0.919   0.917   0.943
    31.00    0.823   0.996   0.928   0.966   0.897   0.973   0.983   0.928   0.947   0.883   0.970   1.072   1.045   1.008   1.034   1.124   1.016   0.964   0.872   0.870   0.858   0.927   0.987   1.047   1.059   0.955   0.894   0.878   0.887   0.869   0.985   0.943   1.079   1.059   0.990   0.976   0.948   0.832   0.947   0.818   0.841
    21.00    0.923   1.001   0.947   0.943   0.901   0.947   0.911   0.896   0.899   0.960   1.015   1.018   1.148   0.975   1.071   1.083   0.991   0.967   0.935   0.936   0.917   0.857   0.975   0.909   1.030   0.944   0.874   0.840   0.806   0.851   0.880   0.957   1.024   0.981   0.927   1.099   0.977   0.974   0.943   0.867   0.892
    11.00    0.925   0.944   0.914   0.915   0.952   0.950   0.963   0.966   0.930   0.959   1.060   1.059   1.109   1.036   1.102   1.036   1.006   0.910   0.927   0.943   0.967   0.939   1.013   1.091   0.969   1.019   0.889   0.884   0.844   0.936   0.949   0.922   0.999   1.015   0.952   1.038   0.964   1.024   1.011   1.008   0.966
     1.00    0.974   0.903   0.936   0.941   0.891   0.892   0.947   0.927   0.971   0.956   0.933   0.998   1.045   1.075   1.063   1.023   1.002   0.969   0.926   0.897   0.940   0.966   0.956   1.005   0.898   0.986   0.903   0.902   0.952   0.952   0.913   0.983   0.998   1.038   0.945   0.911   0.969   0.980   1.047   1.050   0.872

   Mean standard deviation across all grid points:
      u component:    0.982 m/s
      v component:    0.945 m/s
      w component:    0.977 m/s


U-component (X) statistics from the interpolated hub point:

   Mean =  10.0066 m/s
   TI   =   8.8325 %


Processing complete.  7.9062 CPU seconds used.
