
This summary file was generated by TurbSim (from OpenFAST-v3.4.1) on 25-Nov-2024 at 22:29:22.


Runtime Options:

      2042  Random seed #1
         0  Random seed #2
         F  Output binary HH turbulence parameters?
         F  Output formatted turbulence parameters?
         F  Output AeroDyn HH files?
         T  Output AeroDyn FF files?
         F  Output BLADED FF files?
         F  Output tower data?
         F  Output HAWC FF files?
         F  Output formatted FF files?
         T  Output coherent turbulence time step file?
 0 -  NONE  IEC turbulence models scaled to exact specified standard deviation


Turbine/Model Specifications:

        31  Vertical grid-point matrix dimension
        41  Horizontal grid-point matrix dimension
     0.100  Time step [seconds]
   200.000  Analysis time [seconds]
   200.000  Usable output time [seconds]
   151.000  Hub height [m]
   300.000  Grid height [m]
   600.000  Grid width [m]
     0.000  Vertical flow angle [degrees]
     0.000  Horizontal flow angle [degrees]


Meteorological Boundary Conditions:

    IECVKM  IEC von Karman spectral model
         1  IEC standard: IEC 61400-1 Ed. 2: 1999
    10.000  Percent turbulence intensity, IEC 61400-1 Ed. 2: 1999
       NTM  IEC Normal Turbulence Model
       N/A  IEC Extreme Turbulence Model (ETM) "c" parameter [m/s]
       PL   Wind profile type
   150.000  Reference height [m]
    10.000  Reference wind speed [m/s]
       N/A  Jet height [m]
     0.100  Power law exponent
     0.030  Surface roughness length [m]


Non-IEC Meteorological Boundary Conditions:

       N/A  Site latitude [degrees]
       N/A  Gradient Richardson number
       N/A  Friction or shear velocity [m/s]
       N/A  Mixing layer depth [m]
       N/A  Mean hub u'w' Reynolds stress
       N/A  Mean hub u'v' Reynolds stress
       N/A  Mean hub v'w' Reynolds stress


Spatial Coherence Models:

       IEC  u-component coherence model
       IEC  v-component coherence model
       IEC  w-component coherence model
(   12.000, 0.659E-03)  u-component coherence parameters
(   12.000, 0.659E-03)  v-component coherence parameters
(   12.000, 0.659E-03)  w-component coherence parameters
       N/A  Coherence exponent


You have requested that the following file(s) be generated:

   ./TurbulentWind_20WT/FOWTs/Wind\InflowWind_High_WT18.bts (AeroDyn/TurbSim full-field wind file)


Turbulence Simulation Scaling Parameter Summary:

   Turbulence model used                            =  IEC von Karman
   Turbulence characteristic                        =  User-specified
   IEC standard                                     =  IEC 61400-1 Ed. 2: 1999
   Mean wind speed at hub height                    =   10.007 m/s
   Characteristic value of standard deviation       =    1.001 m/s
   Turbulence scale                                 =   21.000 m
   Isotropic integral scale                         =   73.500 m
   Characteristic value of hub turbulence intensity =   10.000%
   Gradient Richardson number                       =    0.000

   Wind profile type                                =  Power law
   Power law exponent                               =    0.100
   Mean shear across rotor disk                     =    0.016 (m/s)/m
   Assumed rotor diameter                           =  300.000 m
   Surface roughness length                         =    0.030 m

   Nyquist frequency of turbulent wind field        =    5.000 Hz

   Number of time steps in the FFT                  =     2600
   Number of time steps output                      =     2600
   Number of points simulated                       =     1271


Mean Flow Angles:

   Vertical   =   0.0 degrees
   Horizontal =   0.0 degrees

Mean Wind Speed Profile:

   Height    Wind Speed   Horizontal Angle  Vertical Angle  U-comp (X)   V-comp (Y)   W-comp (Z)
     (m)        (m/s)         (degrees)       (degrees)       (m/s)        (m/s)        (m/s)   
   ------    ----------   ----------------  --------------  ----------   ----------   ----------
    301.0       10.72            0.00            0.00         10.72         0.00         0.00
    291.0       10.69            0.00            0.00         10.69         0.00         0.00
    281.0       10.65            0.00            0.00         10.65         0.00         0.00
    271.0       10.61            0.00            0.00         10.61         0.00         0.00
    261.0       10.57            0.00            0.00         10.57         0.00         0.00
    251.0       10.53            0.00            0.00         10.53         0.00         0.00
    241.0       10.49            0.00            0.00         10.49         0.00         0.00
    231.0       10.44            0.00            0.00         10.44         0.00         0.00
    221.0       10.40            0.00            0.00         10.40         0.00         0.00
    211.0       10.35            0.00            0.00         10.35         0.00         0.00
    201.0       10.30            0.00            0.00         10.30         0.00         0.00
    191.0       10.24            0.00            0.00         10.24         0.00         0.00
    181.0       10.19            0.00            0.00         10.19         0.00         0.00
    171.0       10.13            0.00            0.00         10.13         0.00         0.00
    161.0       10.07            0.00            0.00         10.07         0.00         0.00
    151.0       10.01            0.00            0.00         10.01         0.00         0.00
    141.0        9.94            0.00            0.00          9.94         0.00         0.00
    131.0        9.87            0.00            0.00          9.87         0.00         0.00
    121.0        9.79            0.00            0.00          9.79         0.00         0.00
    111.0        9.70            0.00            0.00          9.70         0.00         0.00
    101.0        9.61            0.00            0.00          9.61         0.00         0.00
     91.0        9.51            0.00            0.00          9.51         0.00         0.00
     81.0        9.40            0.00            0.00          9.40         0.00         0.00
     71.0        9.28            0.00            0.00          9.28         0.00         0.00
     61.0        9.14            0.00            0.00          9.14         0.00         0.00
     51.0        8.98            0.00            0.00          8.98         0.00         0.00
     41.0        8.78            0.00            0.00          8.78         0.00         0.00
     31.0        8.54            0.00            0.00          8.54         0.00         0.00
     21.0        8.22            0.00            0.00          8.22         0.00         0.00
     11.0        7.70            0.00            0.00          7.70         0.00         0.00
      1.0        6.06            0.00            0.00          6.06         0.00         0.00


Harvested Random Seeds after Generation of the Random Numbers:

    795761552 Harvested seed # 1
   1971657505 Harvested seed # 2


Hub-Height Simulated Turbulence Statistical Summary:

   Type of Wind        Min (m/s)   Mean (m/s)    Max (m/s)  Sigma (m/s)       TI (%)
   ----------------    ---------   ----------    ---------  -----------       ------
   Longitudinal (u)         7.44        10.01        13.22        0.993        9.928
   Lateral (v)             -3.44        -0.00         3.60        1.166       11.657
   Vertical (w)            -2.91        -0.00         2.86        1.006       10.049
   U component              7.44        10.01        13.22        0.993        9.928
   V component             -3.44        -0.00         3.60        1.166       11.657
   W component             -2.91        -0.00         2.86        1.006       10.049
   Horizontal (U&V)         7.67        10.08        13.22        0.976        9.684
   Total                    7.70        10.13        13.29        0.973        9.604

                       Min Reynolds     Mean Reynolds    Max Reynolds    Correlation
   Product             Stress (m/s)^2   Stress (m/s)^2   Stress (m/s)^2  Coefficient
   ----------------    --------------   --------------   --------------  -----------
   u'w'                     -4.361             0.056             4.686         0.056
   u'v'                     -5.447            -0.214             4.793        -0.185
   v'w'                     -7.878            -0.186             5.021        -0.159


   Friction Velocity (Ustar)  =      0.237 m/s
   Maximum Instantaneous TKE  =      8.412 (m/s)^2
   Maximum Instantaneous CTKE =      4.136 (m/s)^2


Grid Point Variance Summary:

   Y-coord -300.00 -285.00 -270.00 -255.00 -240.00 -225.00 -210.00 -195.00 -180.00 -165.00 -150.00 -135.00 -120.00 -105.00  -90.00  -75.00  -60.00  -45.00  -30.00  -15.00    0.00   15.00   30.00   45.00   60.00   75.00   90.00  105.00  120.00  135.00  150.00  165.00  180.00  195.00  210.00  225.00  240.00  255.00  270.00  285.00  300.00

   Height   Standard deviation at grid points for the u component:
   301.00    0.989   0.909   1.074   1.153   1.043   1.026   0.909   0.863   1.035   1.121   0.902   0.830   0.878   0.851   0.807   0.890   1.057   0.943   0.974   0.931   1.024   1.086   1.154   1.140   1.123   1.017   0.930   0.860   0.986   0.999   1.023   0.908   0.819   1.019   1.019   1.058   1.017   1.061   0.930   0.996   1.129
   291.00    0.987   1.054   1.098   1.132   1.119   0.876   0.992   0.912   0.991   1.077   0.896   0.835   0.851   0.776   0.810   0.858   0.982   1.116   1.070   1.008   1.017   1.100   1.136   1.100   1.092   1.056   0.892   0.946   1.064   1.043   0.960   0.850   0.825   0.998   0.973   1.000   1.011   0.940   0.893   0.999   1.025
   281.00    0.991   0.950   1.075   1.203   1.176   0.909   1.017   0.928   1.005   1.089   0.974   0.831   0.893   0.812   0.875   0.898   0.992   1.092   0.977   1.086   1.024   1.046   1.013   1.107   1.161   1.139   1.087   0.963   0.969   1.047   1.027   1.022   0.976   0.887   0.927   1.008   1.021   1.030   1.066   1.012   0.947
   271.00    1.012   0.986   1.037   1.161   1.054   0.904   1.081   1.073   1.060   1.054   0.931   0.917   0.913   0.838   0.868   0.919   0.864   1.021   0.928   1.042   1.011   1.076   0.879   0.938   1.059   1.071   0.926   0.999   1.061   1.079   1.070   1.163   0.997   0.933   1.036   0.950   1.007   1.043   1.002   1.043   0.924
   261.00    1.005   1.001   0.984   1.164   1.038   1.041   1.070   1.024   0.963   1.026   1.039   0.935   0.861   0.867   0.923   0.898   0.911   0.964   0.973   1.099   1.014   1.177   0.840   0.932   0.965   0.980   0.836   0.857   0.995   1.016   1.108   1.208   0.951   0.968   1.013   1.013   1.004   1.063   0.941   0.885   0.867
   251.00    0.954   1.091   1.104   1.116   1.129   1.103   0.909   0.968   0.896   0.939   1.041   0.947   0.919   0.944   0.972   0.889   0.901   0.850   0.954   1.051   0.965   1.052   0.997   0.922   0.897   0.924   0.895   0.788   1.076   1.041   1.149   1.198   1.104   1.104   1.064   1.081   1.006   1.015   0.940   0.975   0.805
   241.00    1.018   1.109   1.088   1.036   1.126   1.128   0.969   0.993   0.906   0.935   1.042   1.031   0.927   0.933   1.103   1.012   0.907   0.894   1.006   0.922   0.988   0.979   1.039   0.905   0.918   0.995   0.872   0.890   1.001   1.088   1.126   1.064   1.056   1.045   0.919   0.935   0.996   0.927   0.948   0.870   0.862
   231.00    1.026   1.087   1.091   1.142   1.100   1.174   1.016   0.919   0.888   0.983   1.024   1.137   1.014   1.072   1.118   1.189   0.999   0.907   0.973   1.025   1.035   0.950   0.979   0.985   0.830   0.942   0.884   1.014   1.049   1.032   1.080   1.132   1.088   1.023   0.953   0.876   0.928   0.920   0.865   0.782   0.871
   221.00    1.124   1.049   1.203   1.205   1.052   1.223   1.033   0.968   0.957   0.961   1.056   1.071   1.040   1.099   1.044   1.045   0.985   0.972   0.982   0.999   0.993   0.992   0.879   0.918   0.865   0.908   0.866   0.874   1.006   1.028   1.020   1.142   1.019   1.006   0.964   0.931   0.934   1.004   0.910   0.794   0.787
   211.00    1.138   1.205   1.185   1.148   1.040   1.090   1.103   0.882   1.011   1.065   1.050   0.907   1.001   1.181   1.193   1.147   1.055   0.921   1.012   0.904   0.942   0.927   0.925   0.931   0.809   0.947   0.862   0.904   1.022   1.111   1.041   1.018   1.031   1.078   1.128   0.873   0.968   1.028   0.974   0.883   0.828
   201.00    1.199   1.179   1.259   1.135   1.139   1.139   1.004   1.038   0.880   1.032   1.062   1.055   0.968   1.068   1.226   1.242   1.185   0.944   0.948   0.964   0.958   0.996   0.998   1.019   0.925   0.946   0.954   0.918   1.024   1.084   1.041   0.918   1.074   1.198   1.103   0.891   0.943   1.059   0.882   0.841   0.790
   191.00    1.218   1.244   1.221   1.180   1.068   1.126   0.989   1.066   0.931   0.974   1.018   1.139   1.104   1.205   1.208   1.264   1.166   0.993   1.094   1.066   1.128   0.978   1.011   1.052   0.981   0.964   0.965   1.005   1.093   1.100   0.875   0.899   0.987   1.081   0.979   0.968   0.934   0.982   0.951   0.789   0.896
   181.00    1.215   1.209   1.205   1.104   1.157   1.061   0.982   1.091   0.970   1.058   0.983   1.165   1.145   1.225   1.231   1.245   1.096   0.986   0.983   1.240   1.176   0.989   1.141   1.063   1.047   1.038   1.046   1.108   0.969   1.074   1.060   1.057   1.079   1.078   0.951   0.945   0.946   0.942   0.922   0.867   1.006
   171.00    1.103   1.175   1.032   1.096   1.015   1.009   1.047   1.114   1.031   1.006   1.113   1.184   1.189   1.244   1.128   1.215   1.111   1.035   1.134   1.209   1.159   1.045   1.098   1.029   1.101   0.988   1.051   1.149   0.933   0.951   1.072   1.007   1.011   0.943   1.073   0.980   0.892   0.979   0.921   0.943   0.957
   161.00    1.036   1.134   0.950   1.035   0.937   1.037   1.113   1.126   1.045   1.004   1.023   1.027   1.012   1.178   1.194   1.191   1.091   1.111   1.036   1.087   1.144   1.073   1.105   1.070   1.073   0.996   1.062   1.072   1.008   0.977   0.969   0.981   1.018   1.025   0.989   0.970   0.886   0.836   0.813   0.835   0.820
   151.00    1.006   1.143   1.029   1.063   0.979   0.956   1.053   1.016   1.131   1.192   1.219   1.115   1.040   0.990   1.194   1.272   0.976   1.073   1.098   0.915   0.993   1.056   0.977   1.020   1.073   1.164   1.112   1.131   0.990   0.951   0.937   0.939   0.926   0.951   0.900   0.946   0.884   0.832   0.911   0.857   0.866
   141.00    1.083   1.070   1.013   1.080   1.178   1.051   1.007   1.085   1.013   1.200   1.231   1.051   1.092   1.147   1.197   1.211   1.164   1.063   1.071   1.008   1.002   1.006   0.987   0.972   1.170   1.082   1.125   1.073   0.898   0.850   0.910   0.818   0.838   0.873   0.820   0.926   0.802   0.865   0.908   0.938   0.876
   131.00    0.974   1.015   0.999   1.139   1.036   1.007   0.948   1.026   1.103   1.171   1.118   1.186   1.100   1.119   1.065   1.147   1.050   1.000   1.012   1.089   1.008   0.933   1.029   0.967   1.047   1.141   1.015   1.054   0.933   0.912   0.894   0.901   0.930   0.828   0.775   0.903   0.876   0.779   0.903   0.873   0.869
   121.00    0.847   0.959   0.996   0.993   1.088   1.087   1.015   1.042   1.045   1.134   1.100   1.050   1.085   1.052   1.039   1.084   0.956   0.954   0.985   0.964   0.937   0.924   0.897   0.911   0.905   0.999   0.978   0.976   1.041   1.054   1.031   0.907   0.980   0.818   0.822   0.889   0.866   0.795   0.774   0.934   0.908
   111.00    0.817   0.908   1.037   0.996   0.996   1.015   1.089   1.050   0.990   1.040   1.007   1.035   0.997   0.991   0.950   0.946   0.935   0.914   0.880   0.949   0.876   0.880   0.963   0.879   0.870   1.054   0.961   0.920   0.997   1.124   1.080   0.909   0.879   0.777   0.829   0.868   0.861   0.827   0.737   0.889   0.809
   101.00    0.924   1.040   0.987   0.921   0.967   0.951   1.063   0.878   0.959   1.077   1.016   1.002   1.066   0.942   0.933   0.958   0.909   0.911   0.845   0.875   0.883   0.945   1.094   1.002   0.970   1.047   0.966   0.904   1.032   1.097   1.040   0.999   0.891   0.968   0.879   0.902   0.962   0.884   0.849   0.924   0.844
    91.00    1.005   1.044   0.955   0.920   1.142   1.042   1.010   0.961   0.970   0.949   0.969   0.971   0.969   0.941   0.887   0.814   0.825   0.871   0.849   0.961   0.875   0.931   0.991   0.932   0.960   0.961   0.812   0.944   1.106   1.088   1.027   0.938   0.857   0.936   0.810   0.877   0.903   0.896   0.904   0.887   0.983
    81.00    0.999   0.994   0.834   0.931   1.040   1.076   0.868   0.851   0.924   0.921   0.975   1.037   0.995   0.821   0.846   0.899   0.908   0.902   0.963   0.897   0.874   0.990   0.974   0.927   0.938   0.950   0.829   0.934   1.067   1.042   0.885   0.920   0.824   0.918   0.874   0.848   0.831   0.930   0.838   0.911   1.034
    71.00    0.883   0.922   0.888   0.957   1.052   1.033   0.916   0.927   0.886   1.001   0.936   0.975   0.875   0.868   0.891   0.937   1.028   1.000   1.008   1.024   0.974   0.929   0.942   0.890   0.856   0.871   0.953   0.983   1.027   1.098   1.028   0.962   0.866   0.928   0.829   0.912   0.761   0.828   0.865   0.914   1.078
    61.00    0.860   0.987   1.059   0.979   1.053   1.000   0.966   0.871   0.932   0.993   0.996   0.883   0.800   0.911   0.987   1.080   1.038   1.065   1.003   0.972   0.885   0.864   0.908   0.746   0.720   0.812   0.833   0.891   0.908   1.087   1.180   1.000   1.032   1.011   0.821   0.940   0.895   0.856   0.832   0.732   0.977
    51.00    0.981   0.977   0.966   1.058   1.040   0.991   0.891   0.898   0.891   0.956   0.977   0.812   0.766   0.947   1.030   1.066   0.966   0.940   1.036   1.015   0.917   0.970   0.952   0.951   0.906   0.997   0.973   0.844   1.054   1.000   1.099   1.045   1.127   1.025   0.937   0.971   0.872   0.908   0.963   0.859   0.887
    41.00    0.894   0.944   0.981   0.983   0.980   1.072   0.960   0.879   0.872   1.028   0.928   0.811   0.839   0.924   0.974   1.012   1.104   0.979   1.044   1.109   0.970   0.919   0.896   1.051   0.970   1.023   0.946   0.915   1.000   1.080   0.993   1.000   0.991   0.939   0.962   0.981   0.946   0.940   0.980   0.967   0.889
    31.00    0.773   0.860   1.074   0.982   1.002   1.004   0.842   0.918   0.882   0.900   0.954   0.861   0.807   0.924   0.921   1.116   1.063   1.120   0.946   1.068   0.933   1.010   1.025   1.016   1.063   1.026   0.925   1.064   1.155   1.075   1.051   1.067   0.975   0.904   0.915   0.970   1.050   1.003   0.993   1.040   0.936
    21.00    0.849   0.806   0.988   1.026   0.938   0.944   0.964   0.950   0.908   0.912   0.858   0.960   0.900   0.880   0.969   1.042   0.904   0.953   1.013   1.041   0.937   0.953   1.014   0.970   1.023   0.978   0.795   0.953   1.070   1.073   1.024   0.988   1.032   0.981   0.994   1.050   0.940   0.896   0.917   0.953   1.085
    11.00    0.823   0.903   0.861   1.001   0.923   0.899   0.948   0.887   0.902   0.982   0.880   0.947   0.846   0.958   0.924   1.047   0.947   0.982   0.984   1.018   1.057   0.979   0.975   1.021   1.031   0.934   0.858   0.911   1.050   0.943   1.067   0.880   0.949   1.040   0.992   1.002   0.949   0.900   0.902   0.936   0.997
     1.00    0.963   0.954   0.956   0.867   0.922   0.926   0.967   0.901   0.928   0.965   0.849   0.958   0.953   0.891   0.921   1.008   0.906   0.978   1.021   0.986   1.011   0.950   1.074   1.069   1.021   1.111   0.948   0.865   0.987   1.031   0.977   0.835   0.846   1.004   1.014   0.956   0.875   0.878   0.909   0.921   0.971

   Height   Standard deviation at grid points for the v component:
   301.00    0.978   0.866   0.930   0.986   0.950   0.898   0.893   0.940   0.965   0.978   0.917   0.860   0.818   0.907   0.905   0.854   0.950   1.061   0.861   0.841   0.930   0.959   1.034   0.985   1.033   0.967   0.963   0.997   0.961   0.909   0.915   0.946   0.922   0.918   0.852   0.896   0.837   0.878   1.002   0.988   0.979
   291.00    0.919   0.935   0.877   0.874   0.794   0.844   0.905   0.970   0.957   0.938   0.921   0.844   0.857   0.864   0.936   0.872   0.897   0.974   1.043   0.857   1.020   1.050   1.075   1.047   1.021   0.858   0.920   0.919   0.992   0.849   0.928   0.916   0.948   0.892   0.850   0.864   0.829   0.947   0.998   1.043   0.962
   281.00    0.901   0.917   0.912   0.990   0.888   0.890   0.846   0.903   1.033   1.055   1.002   0.994   0.858   1.015   0.901   0.979   0.966   1.071   1.060   0.986   1.063   1.084   1.096   1.069   0.890   0.953   0.906   0.896   0.946   0.807   0.964   0.913   0.912   0.910   0.911   0.903   0.893   0.974   1.053   1.072   0.991
   271.00    0.856   0.916   0.845   0.905   0.884   0.836   0.900   0.840   0.862   1.040   1.021   0.923   0.936   0.988   0.952   0.976   0.956   0.978   0.977   1.067   1.044   1.109   0.992   1.004   0.936   0.934   0.887   0.843   0.930   0.875   0.977   0.876   1.008   1.011   1.004   0.911   0.896   0.875   0.913   1.027   0.984
   261.00    0.886   0.970   0.913   0.862   0.841   0.954   0.892   0.800   0.960   0.922   0.974   0.872   0.864   0.937   0.963   0.922   0.938   1.065   0.903   0.974   0.984   1.121   1.100   0.900   0.956   0.928   0.986   0.900   0.850   0.924   0.945   0.892   0.900   0.957   1.019   0.992   0.922   0.948   0.971   1.054   1.057
   251.00    0.902   0.935   0.922   0.806   0.832   0.932   0.951   0.795   0.941   0.921   0.896   0.803   0.898   0.961   0.920   0.883   1.007   1.054   0.987   0.894   0.944   1.042   1.125   0.966   0.898   0.927   0.937   0.830   0.914   0.950   0.872   1.067   0.914   0.967   1.025   0.942   0.994   0.931   0.925   0.955   0.948
   241.00    0.947   0.895   0.896   0.874   0.821   0.898   0.822   0.818   0.909   0.875   0.869   0.825   0.963   0.900   0.962   0.969   1.080   1.039   1.123   0.993   0.937   1.119   1.079   1.009   0.854   0.897   1.005   0.867   0.919   0.881   1.015   1.047   1.025   0.973   0.952   0.925   0.920   0.956   1.000   1.074   0.951
   231.00    0.928   0.854   0.885   0.900   0.871   0.899   0.884   0.816   0.870   0.885   0.881   0.885   0.975   0.977   0.947   0.976   1.068   1.109   1.120   1.038   1.108   1.029   1.017   1.006   0.935   0.999   0.985   0.918   0.868   0.925   0.999   1.179   1.064   1.040   0.997   0.881   0.844   0.868   0.958   0.970   1.059
   221.00    0.960   0.929   0.915   0.877   0.831   0.960   0.891   0.924   0.914   0.895   0.867   0.973   0.954   0.969   0.952   1.013   1.021   1.088   1.011   1.057   1.108   1.014   0.960   0.964   1.079   1.080   1.055   0.903   0.871   0.967   1.050   1.083   1.084   0.960   0.946   0.980   0.891   0.910   0.891   0.922   0.997
   211.00    0.890   0.923   0.923   0.897   1.019   1.014   0.936   0.917   0.792   0.920   0.913   0.927   0.923   0.912   0.903   0.959   0.977   1.038   1.041   1.095   1.058   0.967   0.964   1.029   1.019   1.088   1.074   0.953   1.014   1.029   1.097   1.006   1.036   0.964   0.924   0.848   0.878   0.916   0.854   0.918   0.940
   201.00    1.041   0.908   0.875   0.970   1.003   0.960   0.849   0.966   0.800   0.829   0.886   0.858   0.925   1.010   0.978   0.949   0.827   1.023   1.132   1.024   1.101   1.043   0.955   0.980   1.115   1.054   1.041   0.980   0.998   1.007   1.032   0.968   1.024   0.957   0.954   1.013   0.905   0.958   1.013   1.069   0.988
   191.00    1.070   0.932   0.861   0.939   1.048   0.917   0.906   0.868   0.927   0.870   0.994   0.867   0.939   0.980   0.993   0.905   0.851   0.965   1.095   1.133   1.174   1.109   1.123   1.127   1.058   1.161   0.897   1.035   0.939   1.018   0.968   1.002   0.996   0.900   0.948   0.921   0.922   0.857   1.021   0.961   0.996
   181.00    0.968   0.984   1.019   0.891   0.994   0.902   0.997   0.917   0.856   0.885   0.947   0.824   0.840   1.008   0.990   0.844   0.926   0.962   1.022   1.112   1.262   1.274   1.157   1.162   1.065   1.117   1.138   1.068   0.956   0.966   0.962   0.957   0.996   0.950   0.955   0.917   0.882   0.960   1.002   0.986   1.064
   171.00    1.043   0.996   0.907   0.917   0.851   0.853   0.961   0.884   0.865   0.868   0.916   0.936   0.878   0.976   1.046   0.944   1.046   1.086   1.009   1.123   1.228   1.245   1.214   1.230   1.135   1.117   1.110   0.987   0.906   1.017   0.904   1.019   0.872   0.931   0.939   0.931   0.863   0.888   0.998   0.990   0.982
   161.00    1.053   0.984   0.941   0.959   0.914   1.016   0.948   0.920   0.753   0.875   0.885   0.906   0.999   1.032   0.971   0.868   0.989   0.988   1.102   1.051   1.217   1.285   1.160   1.213   1.185   1.126   1.014   0.961   0.845   0.985   1.040   1.015   0.939   0.905   0.844   0.895   0.870   0.956   0.997   1.004   0.958
   151.00    1.019   1.074   1.000   0.943   0.963   1.058   0.961   0.935   0.958   0.886   0.864   0.942   0.972   1.046   0.901   0.876   0.887   0.964   1.124   1.174   1.166   1.234   1.184   1.159   1.119   1.049   1.028   1.077   1.041   0.879   0.939   0.949   0.871   0.968   0.936   0.879   0.931   0.973   0.959   1.026   0.897
   141.00    0.915   0.935   1.040   1.086   1.074   1.064   0.989   0.975   0.916   0.901   0.782   0.839   0.939   1.105   0.955   0.926   0.963   1.038   1.074   1.147   1.215   1.159   1.166   1.177   1.022   1.002   1.005   1.038   0.995   0.896   1.005   1.036   0.946   0.945   0.862   0.864   1.044   0.993   0.939   0.926   0.832
   131.00    0.923   0.866   1.113   1.118   1.136   1.093   0.998   0.928   0.888   0.949   0.901   0.881   1.004   1.041   1.013   0.990   1.087   1.026   1.011   1.193   1.167   1.144   1.235   1.114   1.165   1.113   0.971   0.900   0.984   0.961   0.946   1.052   0.965   0.883   0.932   1.023   0.945   0.899   0.995   0.833   0.874
   121.00    0.871   1.022   1.038   0.951   1.005   1.048   0.976   0.874   0.939   0.968   1.010   0.945   1.016   1.017   1.001   1.047   1.127   1.076   0.922   1.079   1.106   1.141   1.129   1.032   1.075   1.107   0.916   0.915   1.008   0.970   0.947   0.933   1.019   0.993   0.970   0.927   0.888   0.811   0.907   0.881   0.817
   111.00    0.906   0.994   1.048   0.906   1.058   0.918   0.913   0.899   0.901   1.007   1.012   0.985   1.086   1.097   1.048   1.078   1.112   1.021   0.973   1.108   1.103   1.134   1.125   1.122   1.082   1.033   1.034   0.988   0.973   0.987   0.880   0.893   0.964   1.057   0.973   0.853   0.892   0.826   0.827   0.890   0.877
   101.00    0.886   0.997   0.940   1.109   1.032   1.034   0.896   0.919   0.921   0.946   0.942   1.022   1.059   1.072   1.121   1.115   1.054   1.015   1.076   1.097   1.077   1.165   1.149   1.062   1.103   1.032   0.942   0.975   0.883   1.007   0.875   0.801   0.928   1.026   1.009   0.857   0.846   0.828   0.821   0.864   0.977
    91.00    0.901   0.902   0.954   1.024   1.049   1.053   1.064   0.916   1.018   0.831   0.968   1.069   1.056   1.106   1.165   1.254   0.992   1.039   1.037   1.036   1.108   1.164   1.152   1.191   1.140   0.994   0.906   0.852   0.913   0.903   0.981   1.004   0.863   0.874   0.928   0.980   0.917   0.924   0.962   0.937   0.931
    81.00    0.830   0.864   0.961   1.032   1.076   0.953   0.955   0.920   1.092   1.111   1.092   1.038   1.068   1.075   1.219   1.199   1.081   0.900   0.941   0.978   1.117   1.153   1.028   1.005   1.160   0.972   0.845   0.827   0.847   0.784   0.993   0.941   0.989   0.903   0.914   1.013   1.032   0.864   0.939   0.907   0.911
    71.00    0.846   0.851   0.865   1.055   0.972   0.981   0.853   1.006   1.081   1.077   1.130   1.014   1.075   1.017   1.047   1.168   1.019   0.873   0.942   0.988   1.030   1.047   1.022   0.914   1.049   0.994   0.878   0.899   0.770   0.844   0.914   0.958   0.968   0.990   1.009   0.955   0.969   0.889   0.874   0.899   0.870
    61.00    0.892   0.895   0.942   1.050   1.066   0.997   0.956   0.950   1.105   0.995   1.078   1.097   1.067   0.952   1.103   1.033   1.024   1.013   0.903   0.974   0.951   1.050   1.060   0.895   0.977   0.963   0.844   0.893   0.816   0.823   1.022   1.114   1.085   0.927   1.065   0.942   0.953   0.927   0.921   0.925   0.824
    51.00    0.879   0.936   0.915   0.985   1.012   0.925   0.939   1.108   1.091   1.069   1.113   1.082   1.165   1.022   1.076   1.018   1.008   0.952   0.972   1.028   0.913   1.032   1.060   0.902   0.895   0.906   0.860   0.873   0.775   0.801   0.922   1.017   1.013   1.026   1.075   1.100   0.871   0.939   0.875   0.972   0.904
    41.00    1.007   1.011   0.981   1.081   1.018   0.970   1.037   1.108   1.034   1.137   1.097   1.052   1.092   1.075   0.938   0.898   0.923   0.969   0.960   1.021   0.932   0.959   1.071   0.925   0.931   0.832   0.922   0.903   0.904   0.906   0.981   1.060   1.111   1.027   1.014   0.993   0.873   0.905   0.933   0.926   0.957
    31.00    0.965   0.945   1.101   1.219   1.150   1.010   1.040   1.024   1.129   1.219   1.086   1.049   1.029   0.977   0.893   0.926   1.033   0.998   0.951   0.994   0.934   0.930   0.884   0.951   0.846   0.847   0.951   0.922   0.922   0.968   0.929   1.055   1.004   1.058   0.912   0.912   0.784   0.874   0.948   1.007   0.990
    21.00    0.905   0.879   1.015   1.087   1.102   1.078   1.093   1.040   1.070   1.087   1.010   0.962   0.987   0.901   0.861   0.920   0.975   0.900   0.974   0.999   0.944   0.828   0.936   0.918   0.904   0.899   0.946   0.972   0.992   0.946   0.880   1.016   1.011   1.047   0.893   0.820   0.818   0.789   0.951   0.918   1.036
    11.00    1.024   0.900   1.011   1.069   1.128   0.967   1.118   1.142   0.953   1.019   1.091   0.957   0.938   0.930   0.933   0.965   0.950   0.864   0.951   1.014   0.874   0.840   0.904   0.943   0.913   0.837   0.845   1.008   0.978   1.006   0.953   1.039   1.028   1.125   0.884   0.894   0.786   0.780   0.877   0.795   0.960
     1.00    0.974   0.868   0.931   1.032   1.060   1.057   1.114   1.024   0.960   0.940   0.995   1.065   0.887   0.897   0.916   0.917   0.870   0.924   0.967   0.884   0.943   0.892   0.938   0.930   0.994   0.963   0.904   0.951   0.921   0.947   0.992   1.038   0.974   1.046   0.867   0.888   0.847   0.912   0.887   0.934   0.942

   Height   Standard deviation at grid points for the w component:
   301.00    1.068   1.097   0.962   0.953   0.868   0.905   0.963   0.981   0.950   0.952   0.962   0.934   1.016   0.958   0.975   1.006   0.987   0.963   1.017   1.040   0.971   1.068   0.992   0.942   1.057   1.176   1.161   1.156   1.133   0.993   0.991   1.028   1.011   0.973   0.951   0.931   0.951   0.948   1.012   1.059   1.010
   291.00    1.029   1.072   0.979   0.971   1.004   1.018   0.976   0.907   0.957   0.984   0.984   0.966   0.955   0.938   0.994   1.042   0.926   0.902   1.033   0.962   0.927   1.007   0.966   0.984   1.042   1.123   1.261   1.127   1.109   1.027   0.997   0.984   0.934   0.992   0.952   0.874   1.045   1.036   1.008   0.978   0.934
   281.00    1.014   0.956   0.918   1.070   1.033   1.011   0.954   0.947   0.985   1.010   0.924   0.948   0.944   0.993   0.931   0.953   0.972   0.952   1.014   0.904   0.912   0.987   0.964   1.095   1.066   1.032   1.177   1.209   1.168   1.017   1.098   1.085   0.992   0.941   0.972   0.906   1.051   1.038   0.950   0.999   1.007
   271.00    0.950   0.810   0.890   0.983   1.041   0.924   0.933   0.902   0.953   0.979   0.853   0.984   0.914   0.961   1.004   0.996   0.929   0.920   0.919   1.029   0.986   1.003   1.009   0.975   0.960   1.046   1.133   1.187   1.206   1.015   0.994   1.091   0.954   1.030   0.974   0.899   0.922   1.000   1.000   1.025   1.064
   261.00    0.920   0.827   0.932   1.064   0.996   0.844   0.980   0.898   0.953   0.901   0.907   0.869   0.958   0.916   1.013   0.983   0.981   0.916   0.891   1.022   1.029   0.974   1.010   0.896   0.987   1.059   1.137   1.189   1.136   1.020   0.950   1.112   1.136   1.071   1.039   0.935   0.947   1.007   0.994   1.033   1.134
   251.00    0.954   0.865   1.000   1.039   0.994   0.948   0.999   0.885   0.947   0.897   0.894   0.939   0.930   0.824   0.925   1.021   1.002   1.013   1.061   1.055   1.066   1.144   1.035   0.949   0.961   1.004   1.137   1.088   1.110   1.014   0.963   1.102   1.128   1.037   0.979   1.058   0.960   1.025   0.996   0.972   1.123
   241.00    1.045   1.002   1.072   1.091   1.092   0.899   0.971   1.000   0.957   0.917   0.847   0.933   1.023   0.835   0.873   0.942   1.019   0.925   0.983   1.106   0.958   1.142   1.084   1.018   0.965   1.001   1.063   1.115   0.916   0.940   0.933   1.096   1.152   0.961   0.961   1.009   1.023   1.076   1.041   1.015   1.083
   231.00    1.037   1.082   1.145   1.104   1.061   1.011   1.067   1.052   1.014   0.899   0.937   0.881   0.984   0.935   0.833   0.950   1.067   1.019   0.936   0.998   1.009   1.018   1.095   1.081   0.972   0.977   1.017   1.082   0.981   0.937   1.038   0.940   0.978   0.974   0.979   0.957   1.066   1.062   1.096   1.184   1.070
   221.00    1.004   1.096   1.104   1.037   1.065   1.002   1.079   0.997   0.945   0.941   0.973   1.043   1.032   0.873   0.862   0.849   0.989   1.020   0.986   0.997   1.023   1.039   1.065   1.057   1.033   0.965   0.913   0.971   0.959   0.936   1.038   0.967   0.891   1.004   0.942   1.090   1.086   1.065   1.085   1.119   1.097
   211.00    1.028   0.970   0.997   0.950   0.969   1.059   1.070   1.149   0.946   0.897   0.939   1.037   0.908   0.986   0.925   0.961   0.975   1.051   0.962   0.994   1.003   1.091   1.042   0.969   0.908   0.973   0.956   0.998   0.994   0.943   1.003   1.032   0.938   1.058   1.099   1.101   1.030   1.058   1.037   1.031   1.006
   201.00    1.039   1.001   1.024   1.014   0.996   1.007   1.013   1.097   0.993   0.913   1.015   0.975   1.007   1.032   0.903   1.005   1.116   1.025   1.097   1.032   0.968   0.997   1.017   1.036   0.945   0.969   0.957   0.920   1.032   0.977   0.957   0.880   0.969   0.984   1.162   1.076   0.999   0.974   1.056   1.061   1.092
   191.00    1.051   1.045   1.063   1.006   1.009   1.009   0.910   1.075   0.992   0.926   1.005   1.013   1.115   1.031   1.042   1.063   1.020   1.010   1.060   1.065   0.930   0.959   1.000   1.095   1.008   0.999   1.002   0.949   1.018   0.969   0.973   0.998   0.926   0.944   1.120   1.083   1.035   0.960   1.027   1.113   1.043
   181.00    1.003   1.029   1.045   1.054   0.991   1.052   1.085   0.996   0.987   0.972   1.056   1.014   1.030   0.962   1.010   0.973   0.980   0.930   0.975   0.971   0.952   0.981   0.946   1.008   0.954   0.994   1.026   1.019   1.033   1.063   1.080   0.971   0.879   0.931   1.114   1.137   0.956   1.118   1.003   1.033   1.058
   171.00    1.086   1.009   1.093   1.094   1.168   1.111   1.050   1.002   0.907   1.008   0.965   1.007   1.003   1.090   1.007   1.029   1.038   1.014   1.045   1.026   0.965   0.980   0.981   0.906   0.787   0.977   0.978   0.998   1.025   0.972   1.011   0.922   0.996   1.058   1.028   1.055   0.964   0.973   1.009   0.981   0.979
   161.00    1.097   0.987   1.096   1.015   1.085   1.170   1.070   1.032   0.987   0.961   0.954   0.959   0.960   1.079   1.131   1.131   1.085   1.019   0.935   0.874   0.973   0.917   0.890   0.832   0.820   0.941   0.953   1.028   1.056   0.996   1.084   1.023   1.105   1.028   0.907   0.924   0.967   0.947   0.993   0.980   0.887
   151.00    1.072   1.004   0.975   1.036   1.047   1.099   1.124   1.102   1.104   1.076   0.982   0.932   0.945   1.113   1.171   1.192   1.100   1.010   1.014   0.952   1.006   0.907   0.915   0.833   0.912   0.921   0.889   0.944   0.975   1.024   1.019   0.980   0.986   0.989   0.936   0.903   0.960   0.907   0.940   1.011   0.950
   141.00    0.947   0.953   0.928   1.051   1.006   1.093   1.140   1.004   1.107   1.067   0.979   0.910   0.994   1.032   1.151   1.236   1.047   0.983   1.085   0.969   0.881   0.919   0.909   0.963   0.960   0.904   0.917   0.942   0.908   0.893   0.923   0.948   0.897   0.958   0.981   1.018   1.059   0.940   0.862   0.992   0.882
   131.00    0.909   0.936   0.900   1.049   1.081   1.047   1.165   1.047   1.014   0.999   0.901   0.900   1.009   1.031   1.130   1.120   1.003   0.917   1.053   0.965   0.981   0.914   0.933   1.069   0.968   0.920   0.899   0.897   0.896   0.925   0.839   0.951   1.002   1.015   1.032   0.895   1.105   1.027   0.872   0.997   0.902
   121.00    0.963   0.916   0.939   0.968   1.055   1.092   1.057   0.993   0.950   0.966   0.860   0.912   0.989   1.053   1.005   1.068   1.001   1.052   1.048   0.894   0.916   1.062   1.043   1.054   1.015   0.970   0.947   0.919   0.924   0.888   0.817   0.911   0.906   0.927   0.978   0.969   1.017   0.998   0.996   0.990   0.996
   111.00    1.011   0.886   0.854   0.930   1.040   1.005   0.985   0.873   0.898   0.906   0.915   0.924   0.897   1.047   1.012   0.946   0.987   1.041   1.130   1.012   0.987   0.954   1.010   0.970   1.052   0.931   0.857   0.962   1.012   0.948   0.810   0.913   0.944   0.912   0.999   1.041   1.041   1.003   0.936   0.964   0.978
   101.00    1.006   0.940   0.950   0.946   1.123   1.049   0.837   0.890   0.935   0.931   0.887   0.971   0.937   0.993   0.910   0.939   1.009   1.043   1.063   1.017   0.979   1.118   1.055   1.033   1.044   0.855   0.891   1.039   1.006   0.901   0.933   0.839   0.968   0.946   0.974   0.920   0.954   0.981   0.980   0.966   1.003
    91.00    1.001   0.936   1.022   1.022   1.078   1.003   0.930   0.896   0.878   0.874   0.862   0.828   0.927   0.957   0.869   1.028   1.113   1.048   1.011   0.952   0.989   1.086   0.990   0.976   0.985   0.921   0.847   1.007   0.999   0.945   0.873   0.869   1.019   1.003   1.029   0.889   0.985   0.929   0.960   0.924   1.000
    81.00    1.082   0.915   0.978   0.999   0.973   0.967   0.854   1.001   0.889   0.851   0.872   0.759   0.873   0.903   0.928   0.875   1.090   1.047   0.943   0.910   0.922   0.929   1.003   0.932   1.025   0.981   0.911   1.050   0.956   0.940   0.895   0.903   0.978   0.952   0.998   0.978   0.917   0.866   0.934   0.970   1.010
    71.00    1.169   1.012   0.965   0.952   1.008   0.958   0.916   0.904   0.893   0.788   0.897   1.009   0.892   0.941   0.923   0.970   0.939   1.023   0.978   0.873   0.967   1.008   1.012   0.987   1.012   0.932   1.004   1.020   0.966   0.906   1.031   0.898   0.905   1.017   0.959   0.944   0.813   0.902   0.937   1.025   0.990
    61.00    1.168   1.070   1.071   0.989   0.916   0.859   0.885   0.869   0.825   0.758   0.912   0.962   1.108   0.988   0.937   0.953   0.853   0.904   0.934   0.838   0.940   0.988   1.075   0.906   0.941   1.025   0.985   0.976   0.924   0.967   0.888   0.883   0.951   0.923   1.011   0.895   0.880   0.915   1.016   0.878   0.960
    51.00    1.074   1.096   0.999   0.978   0.957   0.903   0.932   0.954   0.867   0.951   0.931   0.968   0.996   0.922   0.978   0.900   0.893   0.927   0.912   0.943   0.968   1.030   0.980   0.933   1.039   1.003   1.033   0.949   0.988   0.968   0.992   0.863   1.066   0.990   1.014   0.964   0.852   0.954   0.965   1.010   0.931
    41.00    1.142   1.116   1.050   0.988   0.888   0.966   0.970   0.933   0.856   0.906   0.856   0.874   0.871   0.847   0.859   0.915   0.935   0.960   1.059   1.006   0.989   0.982   0.921   0.971   0.954   0.911   0.988   0.898   0.954   0.937   0.992   0.993   0.961   1.036   1.049   0.951   0.851   0.892   0.981   0.958   0.893
    31.00    1.064   0.978   0.991   0.946   0.949   0.951   0.950   0.952   0.993   0.939   0.846   0.917   0.952   0.906   0.936   0.933   0.900   0.897   0.946   0.936   0.965   0.964   0.951   0.955   0.918   0.933   0.913   1.014   1.021   0.963   1.023   1.023   0.951   0.945   1.036   0.972   0.877   1.001   0.854   0.917   0.983
    21.00    1.063   1.070   0.993   0.935   0.909   1.007   0.985   1.066   1.042   0.939   0.819   0.930   0.907   0.852   0.893   0.997   0.929   0.883   0.898   0.935   0.887   1.003   0.898   0.982   0.909   0.877   0.939   1.098   1.009   0.969   1.013   1.037   0.976   0.961   1.054   0.972   0.924   0.937   0.988   0.995   0.962
    11.00    1.046   1.013   0.907   0.973   0.976   0.978   1.080   0.983   1.041   0.987   0.986   1.077   0.900   0.807   0.846   1.001   0.987   1.017   1.046   0.879   0.837   0.984   0.876   0.982   0.881   0.915   1.007   1.049   1.025   0.952   1.111   1.096   1.063   0.868   0.933   0.881   0.912   0.992   0.974   0.995   1.019
     1.00    0.974   0.911   0.942   0.951   1.046   1.028   1.029   1.004   1.025   1.091   1.074   1.049   0.946   0.828   0.867   0.922   1.010   0.985   1.076   0.941   0.923   0.900   0.903   0.953   0.929   0.936   1.038   0.926   0.922   0.961   0.950   1.038   0.987   0.974   0.930   0.972   0.981   0.954   0.933   1.002   0.960

   Mean standard deviation across all grid points:
      u component:    0.988 m/s
      v component:    0.971 m/s
      w component:    0.984 m/s


U-component (X) statistics from the interpolated hub point:

   Mean =  10.0066 m/s
   TI   =   9.9277 %


Processing complete.  8.1094 CPU seconds used.
