
This summary file was generated by TurbSim (from OpenFAST-v3.4.1) on 25-Nov-2024 at 22:26:08.


Runtime Options:

      2037  Random seed #1
         0  Random seed #2
         F  Output binary HH turbulence parameters?
         F  Output formatted turbulence parameters?
         F  Output AeroDyn HH files?
         T  Output AeroDyn FF files?
         F  Output BLADED FF files?
         F  Output tower data?
         F  Output HAWC FF files?
         F  Output formatted FF files?
         T  Output coherent turbulence time step file?
 0 -  NONE  IEC turbulence models scaled to exact specified standard deviation


Turbine/Model Specifications:

        31  Vertical grid-point matrix dimension
        41  Horizontal grid-point matrix dimension
     0.100  Time step [seconds]
   200.000  Analysis time [seconds]
   200.000  Usable output time [seconds]
   151.000  Hub height [m]
   300.000  Grid height [m]
   600.000  Grid width [m]
     0.000  Vertical flow angle [degrees]
     0.000  Horizontal flow angle [degrees]


Meteorological Boundary Conditions:

    IECVKM  IEC von Karman spectral model
         1  IEC standard: IEC 61400-1 Ed. 2: 1999
    10.000  Percent turbulence intensity, IEC 61400-1 Ed. 2: 1999
       NTM  IEC Normal Turbulence Model
       N/A  IEC Extreme Turbulence Model (ETM) "c" parameter [m/s]
       PL   Wind profile type
   150.000  Reference height [m]
    10.000  Reference wind speed [m/s]
       N/A  Jet height [m]
     0.100  Power law exponent
     0.030  Surface roughness length [m]


Non-IEC Meteorological Boundary Conditions:

       N/A  Site latitude [degrees]
       N/A  Gradient Richardson number
       N/A  Friction or shear velocity [m/s]
       N/A  Mixing layer depth [m]
       N/A  Mean hub u'w' Reynolds stress
       N/A  Mean hub u'v' Reynolds stress
       N/A  Mean hub v'w' Reynolds stress


Spatial Coherence Models:

       IEC  u-component coherence model
       IEC  v-component coherence model
       IEC  w-component coherence model
(   12.000, 0.659E-03)  u-component coherence parameters
(   12.000, 0.659E-03)  v-component coherence parameters
(   12.000, 0.659E-03)  w-component coherence parameters
       N/A  Coherence exponent


You have requested that the following file(s) be generated:

   ./TurbulentWind_20WT/FOWTs/Wind\InflowWind_High_WT13.bts (AeroDyn/TurbSim full-field wind file)


Turbulence Simulation Scaling Parameter Summary:

   Turbulence model used                            =  IEC von Karman
   Turbulence characteristic                        =  User-specified
   IEC standard                                     =  IEC 61400-1 Ed. 2: 1999
   Mean wind speed at hub height                    =   10.007 m/s
   Characteristic value of standard deviation       =    1.001 m/s
   Turbulence scale                                 =   21.000 m
   Isotropic integral scale                         =   73.500 m
   Characteristic value of hub turbulence intensity =   10.000%
   Gradient Richardson number                       =    0.000

   Wind profile type                                =  Power law
   Power law exponent                               =    0.100
   Mean shear across rotor disk                     =    0.016 (m/s)/m
   Assumed rotor diameter                           =  300.000 m
   Surface roughness length                         =    0.030 m

   Nyquist frequency of turbulent wind field        =    5.000 Hz

   Number of time steps in the FFT                  =     2600
   Number of time steps output                      =     2600
   Number of points simulated                       =     1271


Mean Flow Angles:

   Vertical   =   0.0 degrees
   Horizontal =   0.0 degrees

Mean Wind Speed Profile:

   Height    Wind Speed   Horizontal Angle  Vertical Angle  U-comp (X)   V-comp (Y)   W-comp (Z)
     (m)        (m/s)         (degrees)       (degrees)       (m/s)        (m/s)        (m/s)   
   ------    ----------   ----------------  --------------  ----------   ----------   ----------
    301.0       10.72            0.00            0.00         10.72         0.00         0.00
    291.0       10.69            0.00            0.00         10.69         0.00         0.00
    281.0       10.65            0.00            0.00         10.65         0.00         0.00
    271.0       10.61            0.00            0.00         10.61         0.00         0.00
    261.0       10.57            0.00            0.00         10.57         0.00         0.00
    251.0       10.53            0.00            0.00         10.53         0.00         0.00
    241.0       10.49            0.00            0.00         10.49         0.00         0.00
    231.0       10.44            0.00            0.00         10.44         0.00         0.00
    221.0       10.40            0.00            0.00         10.40         0.00         0.00
    211.0       10.35            0.00            0.00         10.35         0.00         0.00
    201.0       10.30            0.00            0.00         10.30         0.00         0.00
    191.0       10.24            0.00            0.00         10.24         0.00         0.00
    181.0       10.19            0.00            0.00         10.19         0.00         0.00
    171.0       10.13            0.00            0.00         10.13         0.00         0.00
    161.0       10.07            0.00            0.00         10.07         0.00         0.00
    151.0       10.01            0.00            0.00         10.01         0.00         0.00
    141.0        9.94            0.00            0.00          9.94         0.00         0.00
    131.0        9.87            0.00            0.00          9.87         0.00         0.00
    121.0        9.79            0.00            0.00          9.79         0.00         0.00
    111.0        9.70            0.00            0.00          9.70         0.00         0.00
    101.0        9.61            0.00            0.00          9.61         0.00         0.00
     91.0        9.51            0.00            0.00          9.51         0.00         0.00
     81.0        9.40            0.00            0.00          9.40         0.00         0.00
     71.0        9.28            0.00            0.00          9.28         0.00         0.00
     61.0        9.14            0.00            0.00          9.14         0.00         0.00
     51.0        8.98            0.00            0.00          8.98         0.00         0.00
     41.0        8.78            0.00            0.00          8.78         0.00         0.00
     31.0        8.54            0.00            0.00          8.54         0.00         0.00
     21.0        8.22            0.00            0.00          8.22         0.00         0.00
     11.0        7.70            0.00            0.00          7.70         0.00         0.00
      1.0        6.06            0.00            0.00          6.06         0.00         0.00


Harvested Random Seeds after Generation of the Random Numbers:

   1370121094 Harvested seed # 1
   1971657505 Harvested seed # 2


Hub-Height Simulated Turbulence Statistical Summary:

   Type of Wind        Min (m/s)   Mean (m/s)    Max (m/s)  Sigma (m/s)       TI (%)
   ----------------    ---------   ----------    ---------  -----------       ------
   Longitudinal (u)         7.01        10.01        13.74        1.101       11.001
   Lateral (v)             -2.66        -0.00         3.20        1.059       10.580
   Vertical (w)            -2.69         0.00         3.63        1.059       10.587
   U component              7.01        10.01        13.74        1.101       11.001
   V component             -2.66        -0.00         3.20        1.059       10.580
   W component             -2.69         0.00         3.63        1.059       10.587
   Horizontal (U&V)         7.07        10.06        13.75        1.092       10.853
   Total                    7.08        10.12        13.76        1.108       10.948

                       Min Reynolds     Mean Reynolds    Max Reynolds    Correlation
   Product             Stress (m/s)^2   Stress (m/s)^2   Stress (m/s)^2  Coefficient
   ----------------    --------------   --------------   --------------  -----------
   u'w'                     -4.470             0.146             5.937         0.125
   u'v'                     -6.090            -0.114             4.370        -0.098
   v'w'                     -5.400            -0.098             5.152        -0.088


   Friction Velocity (Ustar)  =      0.382 m/s
   Maximum Instantaneous TKE  =      8.372 (m/s)^2
   Maximum Instantaneous CTKE =      3.765 (m/s)^2


Grid Point Variance Summary:

   Y-coord -300.00 -285.00 -270.00 -255.00 -240.00 -225.00 -210.00 -195.00 -180.00 -165.00 -150.00 -135.00 -120.00 -105.00  -90.00  -75.00  -60.00  -45.00  -30.00  -15.00    0.00   15.00   30.00   45.00   60.00   75.00   90.00  105.00  120.00  135.00  150.00  165.00  180.00  195.00  210.00  225.00  240.00  255.00  270.00  285.00  300.00

   Height   Standard deviation at grid points for the u component:
   301.00    0.961   1.016   0.971   1.054   0.842   0.846   0.782   0.881   1.013   1.018   1.023   0.850   0.961   0.892   0.959   1.055   0.957   0.833   0.867   0.743   0.833   0.837   0.890   0.835   0.836   0.794   0.812   0.745   0.833   0.985   0.943   0.927   0.881   0.967   0.960   1.053   1.139   1.002   0.966   0.942   0.884
   291.00    0.897   0.956   0.900   0.944   0.893   0.884   0.920   0.923   0.888   0.956   0.991   0.867   0.962   0.989   0.934   1.046   1.063   0.836   0.795   0.831   0.797   0.811   0.834   0.888   0.854   0.886   0.848   0.838   0.895   0.980   1.041   0.891   0.812   0.853   0.975   1.019   1.078   1.045   1.021   1.009   1.047
   281.00    0.830   0.916   0.879   0.913   0.977   0.905   0.936   0.944   1.005   1.087   0.967   0.952   0.809   0.883   1.066   1.136   0.985   0.888   0.915   0.915   0.820   0.782   0.819   1.003   0.945   0.909   0.898   0.835   0.884   0.959   0.980   0.910   0.923   0.942   1.103   1.059   1.039   1.092   1.104   0.954   1.063
   271.00    0.829   0.931   0.908   0.949   0.904   0.814   0.928   1.042   1.097   1.068   0.921   0.958   0.862   0.936   1.033   1.098   1.037   0.893   0.886   0.852   0.831   0.775   0.879   0.904   0.963   0.839   0.791   0.775   0.852   0.867   0.884   0.970   0.900   1.000   1.120   1.008   0.974   1.124   1.122   1.186   1.101
   261.00    0.942   0.972   0.911   1.022   0.947   0.873   1.017   0.972   0.935   0.946   0.928   0.943   0.821   0.881   1.038   1.148   1.015   0.831   0.901   0.881   0.949   0.857   0.860   0.888   0.948   0.881   0.773   0.790   0.798   0.927   0.805   0.993   0.974   1.026   1.098   1.011   1.042   1.086   1.147   1.171   1.165
   251.00    0.925   1.011   1.059   0.988   1.023   0.955   0.936   0.988   0.874   0.875   0.895   0.941   0.886   0.920   0.898   1.005   0.963   0.831   0.897   0.937   1.011   1.008   0.882   0.887   0.928   0.889   0.787   0.808   0.869   0.854   0.818   0.935   1.012   1.103   0.989   1.025   0.997   1.033   1.260   1.257   1.189
   241.00    0.952   1.177   1.042   1.079   0.924   0.904   0.869   0.882   0.885   0.905   1.025   0.959   0.928   0.884   0.733   0.881   0.988   1.012   0.989   1.078   1.007   1.099   0.942   0.891   0.832   0.821   0.805   0.807   0.916   0.853   0.907   0.995   0.986   0.970   0.995   1.080   0.956   1.152   1.290   1.238   1.156
   231.00    1.141   1.109   0.970   1.033   0.933   0.838   0.874   0.885   0.818   0.904   1.034   0.975   0.930   0.916   0.726   0.837   0.850   1.112   1.076   1.085   1.084   1.088   0.833   0.857   0.756   0.774   0.775   0.805   0.803   0.877   0.988   1.029   0.982   0.943   1.062   1.070   0.974   1.110   1.208   1.207   1.175
   221.00    1.133   1.027   0.996   0.967   0.936   0.922   0.931   0.900   0.899   0.924   1.062   0.921   0.979   1.007   0.850   0.967   0.945   1.073   0.993   1.157   1.162   1.144   1.013   0.927   0.829   0.760   0.748   0.735   0.764   0.825   0.878   0.897   0.945   0.991   1.056   1.148   0.985   1.005   1.138   1.123   1.036
   211.00    1.149   0.975   1.075   1.019   0.997   0.908   0.962   0.993   0.948   0.904   1.121   0.873   0.984   1.018   0.977   0.977   0.912   0.955   1.081   1.130   1.180   1.070   0.905   0.820   0.842   0.802   0.770   0.760   0.747   0.758   0.756   0.865   0.826   0.979   1.082   1.060   1.000   1.051   1.167   1.038   0.944
   201.00    1.094   1.035   0.975   1.045   1.071   1.046   1.076   1.023   0.990   1.057   0.988   0.945   0.969   0.993   1.001   0.976   0.976   0.933   1.049   1.142   1.122   1.027   1.002   0.896   0.983   0.832   0.770   0.775   0.838   0.835   0.835   0.846   0.980   0.933   0.983   1.017   0.903   1.011   0.994   1.081   1.008
   191.00    0.986   1.151   0.965   1.020   0.997   1.022   1.019   0.949   0.949   1.023   1.002   1.042   0.973   0.969   0.894   0.953   0.868   0.886   1.083   1.125   1.108   1.164   1.048   1.072   0.955   0.918   0.930   0.811   0.800   0.815   0.835   0.895   0.996   1.013   0.913   0.896   0.887   1.000   0.906   1.006   0.978
   181.00    1.165   1.192   1.148   1.107   1.015   1.047   1.015   0.896   0.969   0.903   0.824   0.934   0.952   0.924   0.934   0.908   0.948   0.951   0.949   1.004   1.058   1.243   1.135   1.223   1.030   1.086   0.878   0.802   0.857   0.944   1.009   0.950   0.929   0.892   0.965   0.812   0.863   0.933   0.935   0.944   0.919
   171.00    1.161   1.220   1.201   1.188   1.016   1.193   1.076   0.983   1.018   0.894   0.930   0.945   0.878   0.904   0.909   0.854   0.934   0.953   0.981   0.954   1.076   1.190   1.242   1.129   0.925   0.968   0.880   0.924   0.818   0.864   0.858   0.893   0.967   0.916   0.925   0.815   0.859   0.895   0.903   0.929   0.833
   161.00    1.140   1.237   1.144   1.191   1.129   1.070   0.974   1.042   1.077   0.873   0.894   0.903   0.833   0.954   0.962   0.948   1.023   1.000   0.964   0.943   1.086   1.187   1.142   0.907   0.856   0.899   0.839   0.927   0.823   0.764   0.883   0.912   0.900   0.924   0.964   0.934   0.931   0.935   0.908   0.917   0.830
   151.00    1.054   1.069   1.082   1.059   1.044   1.227   0.982   1.004   1.035   1.100   0.897   0.868   0.960   0.990   0.942   0.920   0.906   0.894   0.984   0.924   1.101   1.205   1.068   0.964   0.881   0.964   1.010   0.935   0.858   0.810   0.893   0.993   0.918   0.875   0.891   0.890   0.919   0.904   0.896   0.938   0.829
   141.00    1.009   1.038   1.055   1.033   1.135   1.147   1.060   0.904   0.986   0.975   0.894   0.923   1.086   1.036   0.998   0.887   0.991   0.969   0.857   1.009   1.119   1.118   1.035   0.913   0.882   0.908   0.942   0.924   0.927   0.853   0.875   0.880   0.927   0.903   0.807   0.882   0.920   0.903   0.809   0.911   0.776
   131.00    0.952   1.080   1.059   1.099   1.117   1.093   0.918   0.871   0.953   0.921   0.918   0.892   1.013   1.078   1.009   1.054   0.949   0.939   0.812   1.021   1.067   1.126   1.043   0.981   0.818   0.981   1.000   0.870   1.040   0.823   0.852   0.900   1.002   0.890   0.848   0.911   0.903   0.956   0.864   0.907   0.811
   121.00    0.879   0.962   1.115   1.191   1.165   1.032   0.938   0.839   0.925   0.994   0.834   0.925   0.982   1.188   1.037   0.993   1.060   1.068   0.963   1.007   0.904   0.941   1.000   0.974   0.985   1.136   1.041   0.941   0.998   0.890   0.822   0.865   0.923   0.986   0.941   0.888   0.924   0.941   0.864   0.933   0.795
   111.00    0.892   0.983   1.036   1.078   1.203   0.945   0.826   0.752   0.931   1.010   0.956   0.991   1.044   1.143   1.036   1.051   1.104   1.012   1.023   1.050   0.921   0.897   1.081   0.968   0.865   1.073   0.926   0.955   0.888   0.931   0.830   0.900   0.906   0.973   0.974   0.957   0.869   0.816   0.856   0.853   0.755
   101.00    0.954   0.936   0.981   0.934   1.073   0.992   1.001   0.811   0.966   0.935   0.910   0.982   1.068   1.080   1.012   1.016   1.044   1.065   0.966   0.916   0.963   1.062   1.073   1.132   0.956   1.013   0.854   0.791   0.969   0.935   0.886   0.905   0.957   1.030   0.908   0.886   0.978   0.876   0.905   0.794   0.763
    91.00    0.928   1.006   1.049   0.896   0.974   0.973   0.973   0.872   0.882   1.000   0.938   0.940   1.063   1.021   0.989   0.927   0.950   1.007   0.908   0.963   1.047   1.040   1.073   1.152   1.024   0.927   0.813   0.863   0.874   0.942   0.903   0.903   0.838   1.034   0.986   0.937   0.874   0.769   0.944   0.764   0.825
    81.00    0.949   1.024   1.161   0.980   1.012   0.971   0.888   0.800   0.799   0.890   0.953   0.981   1.042   1.094   0.992   0.931   0.965   1.053   0.921   0.963   1.038   1.046   1.049   1.092   0.986   0.783   0.846   0.841   1.001   0.895   0.862   0.968   0.806   1.012   1.024   0.919   0.810   0.888   0.822   0.998   0.883
    71.00    1.072   0.996   1.089   1.082   1.010   0.919   0.834   0.679   0.871   0.950   1.027   1.136   1.139   0.995   1.041   0.897   0.967   1.087   0.922   1.006   0.952   0.941   0.946   0.970   0.904   0.857   0.895   0.897   1.012   0.885   0.906   0.928   0.967   1.003   1.144   0.892   0.906   0.914   0.986   1.032   0.932
    61.00    1.047   1.003   1.142   1.058   1.065   1.003   0.839   0.718   0.897   0.994   0.984   1.055   1.049   0.890   0.942   1.059   0.938   1.055   1.014   1.002   1.042   0.942   0.869   0.953   0.944   0.839   0.967   0.950   0.903   0.968   0.967   0.926   0.859   1.016   1.110   0.978   0.928   0.920   0.912   1.104   0.895
    51.00    0.989   1.031   1.080   1.051   0.988   1.014   0.862   0.806   0.786   0.890   0.963   0.910   0.954   0.938   1.029   0.979   0.991   0.965   1.044   1.031   1.012   0.993   0.957   0.945   0.796   0.882   0.884   0.876   0.799   0.805   1.001   0.917   0.884   0.989   1.044   0.804   0.847   0.933   0.894   0.988   0.881
    41.00    1.040   1.008   1.013   1.045   1.027   1.059   0.853   0.855   0.836   0.948   0.943   0.935   0.797   1.016   1.124   0.961   1.053   1.015   0.902   0.980   1.021   0.907   0.871   0.925   0.838   0.746   0.794   0.878   0.813   0.908   0.976   1.075   1.064   0.957   1.000   0.872   0.880   0.933   0.878   0.965   1.036
    31.00    0.995   1.025   0.933   0.955   0.996   1.007   0.967   0.900   0.888   0.924   0.829   0.937   0.971   0.932   1.045   0.972   0.942   0.988   0.971   0.912   0.992   0.855   0.933   1.058   0.872   0.806   0.813   0.894   0.870   0.891   0.970   0.992   0.996   0.912   0.926   0.897   0.980   0.974   0.937   0.945   0.939
    21.00    0.888   0.877   0.859   0.896   0.900   0.973   1.051   0.894   0.835   0.952   0.813   0.915   1.070   0.964   0.960   0.953   0.893   0.930   0.988   1.003   1.027   0.912   0.941   0.960   0.831   0.890   0.873   0.872   0.836   0.997   0.978   1.039   1.031   0.962   0.832   0.943   0.775   0.886   0.882   0.992   0.934
    11.00    0.977   0.851   0.876   0.949   0.962   0.932   0.968   0.996   0.938   0.833   0.828   0.997   1.075   1.097   0.984   0.979   1.014   0.945   0.934   1.049   1.026   1.033   0.949   0.943   0.888   0.911   0.954   0.826   0.795   0.940   1.033   0.998   0.917   0.901   0.744   0.852   0.911   0.840   0.857   1.030   0.902
     1.00    0.963   1.030   0.943   0.914   0.937   0.936   1.021   0.964   0.882   0.888   0.890   0.921   1.012   1.028   1.006   1.054   1.024   0.938   0.901   0.970   0.941   0.961   1.039   0.943   0.827   0.872   0.949   0.891   0.821   0.984   0.965   1.022   0.955   0.897   0.904   0.855   0.904   0.868   0.947   0.909   0.783

   Height   Standard deviation at grid points for the v component:
   301.00    0.972   1.051   1.016   1.034   0.976   0.956   0.944   1.080   1.149   1.221   1.130   1.088   1.105   0.826   0.888   0.968   1.003   0.976   0.939   0.924   1.057   0.932   0.838   0.817   0.826   0.904   0.865   0.972   0.874   0.846   0.965   1.071   0.940   0.944   0.940   0.927   0.927   1.063   1.009   0.929   0.947
   291.00    0.884   0.992   0.990   1.054   1.084   0.919   1.003   0.967   1.071   1.084   1.052   0.942   0.940   0.872   0.906   0.976   1.027   0.932   1.003   1.034   1.009   0.959   0.840   0.936   0.934   0.835   0.928   0.858   0.912   0.915   0.982   0.978   0.922   1.021   0.942   0.922   0.935   1.033   0.967   1.012   0.963
   281.00    0.961   0.910   0.940   1.027   0.937   0.978   1.115   1.119   1.009   0.954   1.015   0.927   0.888   0.849   0.844   0.940   0.981   1.012   0.980   1.065   1.053   0.929   0.929   0.967   0.923   0.865   0.848   0.906   0.885   0.921   0.878   0.967   0.896   0.966   0.955   0.913   0.932   0.998   1.014   1.035   0.998
   271.00    0.922   0.936   0.935   0.966   0.982   0.912   1.029   1.097   0.981   0.915   0.903   0.913   0.939   0.904   0.923   0.973   1.025   1.166   1.168   1.053   1.040   1.059   0.945   0.999   0.962   0.874   0.913   0.924   0.866   0.865   0.990   0.972   0.869   0.970   0.941   0.897   0.952   0.945   0.895   0.992   0.994
   261.00    0.957   0.889   0.904   0.927   0.910   1.008   1.108   1.053   1.020   0.979   0.916   0.881   0.851   1.002   0.913   0.961   1.061   1.144   1.173   1.050   1.033   1.032   1.000   0.953   0.904   0.905   0.885   0.854   0.890   0.813   0.973   0.912   0.891   0.929   0.922   0.997   1.009   1.009   0.874   0.922   0.996
   251.00    0.958   0.979   1.060   1.011   0.925   0.991   0.988   1.024   0.873   0.963   0.949   0.890   0.875   1.009   1.016   1.054   1.124   1.188   1.159   1.096   1.045   1.069   0.913   0.957   0.963   0.863   0.936   0.894   0.920   0.862   0.896   0.959   0.876   0.862   0.894   1.008   0.925   0.921   0.867   0.969   0.959
   241.00    1.003   0.923   0.940   0.984   0.942   0.923   0.954   1.006   0.902   0.891   0.971   0.847   0.886   0.956   0.986   1.110   1.066   1.149   1.205   1.107   1.019   0.934   0.916   0.954   0.910   0.814   0.902   0.966   0.853   0.932   0.867   0.890   0.943   0.949   0.845   0.960   0.958   0.936   0.893   0.953   1.109
   231.00    0.922   0.899   0.951   0.884   0.917   1.017   0.997   0.969   1.061   0.949   1.011   0.998   0.943   1.045   0.993   1.131   1.083   1.130   1.106   1.088   1.112   1.009   0.894   0.982   0.882   0.852   0.836   0.895   0.816   0.865   0.878   1.017   0.895   0.888   0.775   0.869   0.844   0.885   0.898   0.970   1.095
   221.00    0.962   0.934   0.907   0.860   0.883   0.937   0.891   0.953   0.987   0.979   1.024   1.048   1.002   0.975   0.981   1.066   1.042   1.054   1.085   1.075   1.026   0.976   0.823   0.970   0.904   0.890   0.826   0.926   0.962   0.904   0.885   1.021   0.935   0.942   0.894   0.839   0.868   0.974   0.997   1.056   1.044
   211.00    0.942   0.914   0.956   0.881   0.820   0.943   0.964   1.000   0.851   0.944   0.976   0.938   1.000   0.943   1.005   0.870   0.957   0.995   0.979   0.975   0.904   0.913   0.895   0.849   0.887   0.992   0.982   0.857   0.896   0.952   0.987   1.032   0.926   1.065   1.033   0.888   0.918   0.950   1.065   1.099   0.980
   201.00    0.893   0.918   0.964   0.910   0.831   0.880   0.932   0.999   0.905   0.960   0.979   1.063   1.013   0.993   0.987   0.965   0.879   1.000   0.990   0.968   0.900   0.937   1.001   0.868   0.950   1.026   1.059   0.841   0.873   1.057   1.014   0.973   0.876   0.939   1.047   1.024   0.938   0.946   1.052   1.076   1.072
   191.00    0.912   0.942   0.976   0.928   0.923   0.873   0.847   0.996   0.928   0.881   1.023   1.067   0.908   0.921   1.022   0.917   0.915   1.002   0.986   0.946   1.018   1.046   1.074   0.995   1.050   1.103   0.995   0.892   0.930   1.026   1.052   0.934   0.962   1.001   0.992   0.999   1.061   1.096   1.067   0.961   1.074
   181.00    0.923   0.923   0.893   0.907   0.951   0.888   0.890   0.941   0.891   0.911   0.960   0.966   0.866   0.805   1.007   1.068   0.855   0.952   1.061   0.939   0.997   1.071   1.095   1.084   1.062   0.963   1.025   0.974   0.940   0.997   0.929   0.852   0.965   0.952   0.975   0.981   1.059   1.066   1.089   1.139   1.057
   171.00    0.999   0.947   0.951   1.004   1.072   1.010   0.947   0.986   0.887   0.965   0.962   0.914   0.934   0.863   1.001   1.040   1.010   1.015   1.027   0.929   1.121   1.127   0.958   1.078   0.997   0.989   1.063   0.913   0.962   0.988   0.911   0.979   0.892   0.941   0.846   0.972   1.093   1.101   1.138   1.122   1.071
   161.00    0.905   0.928   0.955   0.929   1.044   1.034   0.854   0.965   0.926   0.887   0.869   0.906   0.899   0.858   0.870   1.002   0.993   0.889   1.000   0.902   1.080   1.101   1.084   1.034   0.978   1.013   0.906   0.992   0.933   0.908   0.995   0.983   0.854   0.953   0.938   0.930   1.013   1.045   1.061   1.157   1.125
   151.00    0.882   0.876   0.969   0.855   0.958   1.015   0.942   0.970   0.878   0.977   0.873   0.895   0.863   0.891   0.858   0.927   0.843   0.876   0.909   0.993   1.059   1.008   1.053   1.047   0.970   0.929   0.929   0.952   0.914   0.902   0.953   1.004   0.833   0.901   0.945   0.939   0.963   1.076   1.124   1.114   1.026
   141.00    0.983   0.925   0.904   0.882   0.882   0.913   0.936   0.938   0.990   0.919   0.899   0.880   0.895   0.965   0.861   0.952   0.905   0.785   0.870   0.951   0.973   1.112   1.003   1.024   0.973   0.931   0.897   0.898   0.860   0.823   0.964   1.029   1.033   1.001   1.011   1.024   0.984   1.112   1.121   0.917   0.981
   131.00    0.927   0.825   0.881   0.875   0.891   0.856   0.955   0.892   0.933   0.928   0.923   0.882   0.929   1.039   0.922   0.888   0.888   0.783   0.964   0.954   0.974   1.024   1.021   1.036   0.960   0.982   0.876   0.894   0.878   0.900   0.978   1.045   0.955   0.935   0.970   0.961   1.032   0.989   0.960   0.927   0.935
   121.00    0.852   0.954   0.879   0.864   0.902   0.835   0.991   0.943   0.970   0.900   0.840   0.936   0.911   0.920   0.883   0.891   0.818   0.792   0.872   0.939   0.921   0.965   0.938   0.818   0.894   0.933   0.825   0.870   0.891   0.889   0.905   0.957   1.050   0.995   0.995   0.931   0.934   0.871   0.934   0.987   0.945
   111.00    0.971   0.930   0.954   0.962   0.963   0.978   0.955   1.030   1.038   0.881   1.012   0.932   0.942   0.977   0.936   0.942   0.905   0.939   1.021   0.949   0.886   0.875   0.954   0.847   0.908   0.902   0.820   0.845   0.793   0.910   0.895   0.979   0.956   0.981   0.987   0.956   0.788   0.801   0.921   0.987   1.061
   101.00    0.954   1.085   0.985   0.934   1.013   0.928   0.977   1.090   0.982   0.969   0.980   0.957   1.047   1.037   0.891   0.881   0.892   1.007   1.000   0.937   0.881   0.931   0.935   0.870   0.849   0.951   0.829   0.950   0.906   0.944   0.948   0.886   0.973   0.966   0.918   0.906   0.909   0.803   0.868   0.976   1.048
    91.00    1.162   1.060   1.003   0.953   1.039   0.900   1.047   0.999   0.998   0.946   1.063   1.015   1.054   0.915   0.964   0.877   0.854   0.957   1.046   0.968   1.030   0.994   0.875   0.846   0.876   0.879   0.947   1.017   0.958   0.997   1.036   0.977   0.930   0.921   0.910   0.979   0.945   0.962   0.977   0.990   0.964
    81.00    1.056   1.038   0.970   0.983   0.905   0.891   1.010   0.904   0.955   0.955   1.037   0.977   1.010   1.047   0.970   0.887   0.818   0.929   0.993   0.962   1.015   1.056   0.892   0.835   0.855   0.877   0.928   0.891   0.892   0.984   0.953   0.901   0.948   0.921   0.891   0.977   1.060   1.000   0.943   0.944   0.996
    71.00    1.064   1.028   0.914   1.025   0.876   0.949   0.963   0.941   1.020   1.048   1.076   0.977   0.960   1.045   1.040   0.924   0.847   0.905   0.957   0.930   1.121   1.006   1.046   0.921   0.917   0.883   0.954   0.989   0.907   0.930   1.032   0.959   1.005   0.979   0.848   1.010   1.085   1.005   0.884   0.903   0.913
    61.00    0.984   0.974   0.981   0.982   0.899   0.934   0.892   0.849   1.017   0.933   1.007   0.916   0.910   0.984   1.023   0.931   0.912   0.968   0.990   1.131   1.003   1.049   1.024   0.956   0.977   0.851   0.922   1.035   0.959   0.983   0.913   0.956   1.006   0.962   0.887   0.919   1.000   0.887   0.924   0.890   0.903
    51.00    1.032   1.018   1.000   1.025   0.907   0.993   0.827   0.835   0.957   0.947   0.906   0.963   0.955   0.977   0.969   0.951   0.974   0.957   0.932   0.986   0.957   1.032   0.986   1.023   0.930   0.961   0.881   0.911   0.845   0.975   1.019   1.016   0.977   0.942   1.062   1.020   1.034   1.003   0.945   0.953   0.815
    41.00    0.980   1.008   1.018   0.945   1.044   0.952   0.844   0.854   0.942   0.966   0.868   0.871   0.954   0.937   1.042   0.898   0.941   0.958   0.996   0.964   0.916   0.934   0.899   1.021   0.880   0.953   0.910   0.888   0.863   0.982   1.049   0.947   1.051   1.119   0.942   0.981   1.030   0.984   0.962   0.954   0.957
    31.00    0.843   0.926   0.956   1.010   1.017   0.991   0.968   1.006   0.908   1.117   0.893   0.961   1.045   1.045   1.052   1.023   1.004   1.030   0.882   0.876   0.814   0.906   0.925   0.928   0.887   0.913   0.933   1.000   0.906   0.976   0.990   1.049   1.002   1.038   1.002   0.982   1.035   0.966   0.975   0.944   0.916
    21.00    0.962   0.871   0.965   0.971   1.014   1.068   0.937   1.056   0.878   1.026   0.982   1.032   0.969   0.848   0.933   0.922   1.025   1.054   0.756   0.840   0.915   0.914   1.029   0.919   0.852   0.865   0.906   0.987   0.996   0.963   1.093   0.990   0.908   0.976   1.016   1.018   1.067   0.982   1.004   0.980   0.997
    11.00    1.000   0.976   0.877   0.906   0.980   0.959   0.947   0.971   0.965   1.031   1.006   0.958   0.892   0.810   0.855   0.930   1.054   1.056   0.866   0.897   0.927   0.999   1.001   0.994   0.904   0.844   0.979   1.087   1.014   0.996   1.079   0.983   1.010   1.058   1.041   1.073   1.030   1.012   1.027   0.963   1.029
     1.00    0.974   0.922   0.895   0.929   0.947   1.001   0.928   0.891   0.882   1.059   0.961   0.977   0.947   0.904   0.863   0.957   0.948   0.992   0.931   0.956   0.964   1.024   1.004   1.100   1.073   0.936   0.959   0.999   1.010   0.990   0.907   1.007   0.975   0.971   0.960   0.999   1.034   0.932   0.957   0.898   0.986

   Height   Standard deviation at grid points for the w component:
   301.00    0.971   0.926   1.068   0.960   0.959   1.015   1.061   0.959   0.910   0.917   0.936   0.899   0.890   0.863   1.087   0.998   1.049   1.019   1.011   0.943   1.044   0.964   0.966   0.982   1.030   1.077   1.108   1.090   1.069   1.060   1.022   0.945   1.002   1.057   1.104   1.005   0.984   0.975   0.911   0.973   0.860
   291.00    0.960   0.996   1.116   0.962   0.884   0.995   1.025   1.071   0.934   0.963   0.932   0.894   0.853   0.879   1.021   0.960   0.974   0.911   0.848   0.938   0.967   0.969   0.932   1.008   1.061   1.061   1.061   1.092   1.081   1.079   1.001   1.016   0.976   0.873   0.933   0.989   0.987   0.937   1.015   0.988   0.870
   281.00    0.905   1.024   1.118   1.020   1.001   0.999   1.004   0.980   0.933   1.007   0.925   0.824   0.868   0.901   0.938   0.908   0.947   0.869   0.911   0.985   1.099   1.057   0.908   0.918   1.087   0.997   0.989   0.989   0.979   0.885   0.860   0.985   0.941   0.971   1.067   0.941   0.959   0.885   0.945   0.918   0.869
   271.00    1.051   1.028   1.052   1.034   0.992   1.025   0.969   1.009   0.907   0.867   0.949   0.841   0.849   0.913   0.896   0.852   0.924   0.812   0.893   0.897   1.001   0.896   0.955   0.978   1.057   1.106   0.948   0.870   0.881   0.910   0.869   1.047   0.941   1.086   1.037   1.011   1.027   0.916   0.971   0.902   1.029
   261.00    1.091   1.007   1.064   1.080   1.068   0.990   0.963   0.964   0.993   0.928   0.968   0.874   0.936   0.955   0.956   0.852   0.918   0.869   0.980   0.923   0.909   0.940   0.964   0.966   0.966   1.012   0.974   0.966   0.869   0.894   0.921   0.943   1.076   1.112   1.014   1.099   0.960   0.933   0.992   0.984   0.969
   251.00    0.999   0.931   1.088   1.033   1.057   0.988   0.975   0.976   0.968   0.968   0.906   0.954   0.949   0.917   0.897   0.885   0.869   0.867   0.884   0.897   1.021   0.914   0.971   0.885   0.940   0.905   0.958   0.971   0.900   0.953   0.906   1.004   0.951   1.097   1.100   1.107   0.941   0.991   1.098   1.067   1.021
   241.00    0.974   1.085   1.123   1.020   1.015   1.092   1.019   0.887   0.947   1.058   0.916   0.955   1.049   0.883   0.927   0.964   0.927   0.954   0.889   0.959   1.070   1.034   1.000   0.912   0.916   0.842   0.916   0.930   0.919   0.942   0.967   0.933   0.956   0.990   1.055   1.053   0.989   1.084   1.089   0.961   0.976
   231.00    0.926   1.029   1.101   1.001   1.033   1.096   0.986   0.993   1.030   0.983   0.905   0.898   0.931   0.981   0.960   0.987   0.974   0.884   1.014   1.007   1.048   0.937   0.991   0.875   0.869   0.896   0.890   0.861   0.860   0.925   0.947   0.976   0.945   0.904   0.973   0.919   0.971   1.066   1.105   1.016   0.957
   221.00    0.891   0.922   0.998   1.027   1.081   1.073   1.086   1.020   1.028   0.844   0.913   0.911   0.961   0.949   1.029   0.941   0.982   0.938   0.923   0.983   1.045   0.999   0.968   0.961   0.908   0.893   0.911   0.867   0.892   0.911   0.930   0.973   0.959   0.928   0.955   0.940   1.017   1.026   1.005   1.121   1.049
   211.00    0.802   0.913   0.997   1.012   1.054   1.100   1.027   0.942   1.015   0.838   0.847   0.982   0.968   1.093   1.055   0.997   0.904   0.885   0.879   0.914   0.974   1.078   0.998   0.897   0.904   0.856   0.875   0.856   0.913   1.012   1.004   0.966   0.963   1.039   1.021   1.002   1.118   1.042   1.046   1.128   1.107
   201.00    0.943   0.867   0.994   1.007   1.132   1.013   1.109   1.111   1.102   0.949   0.915   0.965   0.917   0.963   1.050   0.985   0.922   0.921   0.820   0.871   0.863   1.034   1.021   0.987   0.857   0.819   0.856   0.888   0.911   1.036   1.086   0.930   0.950   1.023   1.025   0.926   1.016   1.084   1.110   1.122   1.014
   191.00    0.954   0.781   0.983   1.188   1.163   1.142   1.093   1.124   1.096   0.962   0.953   0.922   0.942   0.979   1.010   0.953   0.906   0.770   0.889   0.984   0.891   0.939   1.035   1.029   0.941   0.833   0.928   0.913   0.936   0.960   0.966   0.997   1.033   0.918   0.949   0.912   0.977   1.099   1.011   1.078   0.965
   181.00    0.944   0.855   1.042   1.087   1.138   1.091   1.149   1.175   1.142   1.097   1.087   1.046   0.987   1.006   0.895   0.889   0.930   0.864   0.881   0.995   0.990   0.987   1.075   1.069   0.887   0.818   0.872   0.851   0.931   0.910   0.930   0.909   0.978   0.930   0.946   0.957   0.950   1.010   1.029   1.045   0.945
   171.00    0.901   0.906   1.004   1.079   1.029   1.167   1.201   1.193   1.175   1.226   1.097   1.095   1.002   0.999   0.921   0.810   0.904   0.941   0.942   1.014   1.041   1.116   0.961   0.965   0.873   0.879   0.844   1.004   0.912   0.854   0.860   0.882   0.988   0.929   0.831   0.948   0.948   0.949   0.921   0.933   0.994
   161.00    0.896   0.972   1.007   1.007   0.973   1.086   1.244   1.127   1.201   1.222   1.083   0.945   1.026   0.897   0.877   0.859   0.895   0.969   1.000   1.000   0.974   1.127   0.926   0.956   0.880   0.855   0.841   0.880   0.932   0.916   0.914   0.932   0.931   1.040   0.899   0.917   0.967   1.012   0.906   0.936   0.973
   151.00    1.077   0.995   0.993   0.933   0.932   0.955   1.129   1.049   1.210   1.279   1.093   0.987   0.995   0.896   0.871   0.972   0.947   0.976   1.032   0.981   1.059   1.068   1.017   1.062   0.935   0.888   0.823   0.843   0.893   0.854   0.948   0.978   0.962   1.039   0.840   0.967   1.068   1.059   1.032   0.897   0.963
   141.00    1.033   1.071   1.074   0.990   0.939   0.963   1.058   1.087   1.163   1.157   1.210   0.938   1.097   0.924   0.836   1.034   0.956   0.957   0.998   0.927   1.045   1.051   1.042   1.029   0.905   0.867   0.841   0.850   0.930   0.973   0.899   0.956   0.955   0.875   0.948   0.946   1.056   1.075   0.964   0.885   0.991
   131.00    0.896   1.010   1.042   0.875   0.827   0.919   1.031   1.074   1.075   1.082   1.058   1.015   1.086   0.934   0.845   0.938   1.015   0.940   0.911   0.890   1.051   1.066   1.107   1.076   0.872   0.871   0.924   0.916   0.972   0.875   0.943   0.949   0.987   0.973   0.833   0.885   0.923   0.951   1.034   0.896   0.861
   121.00    0.864   0.921   0.961   0.931   0.897   0.962   0.982   1.046   1.025   1.095   1.037   0.905   0.979   0.974   0.991   1.015   0.955   0.915   0.911   1.005   1.094   0.962   1.053   1.018   0.938   0.927   0.980   0.933   0.907   0.942   0.909   0.865   0.960   1.020   0.903   0.915   0.917   0.874   0.918   0.869   0.876
   111.00    0.951   0.950   0.925   0.776   0.937   0.968   1.050   1.120   1.183   1.031   1.091   0.903   0.975   0.992   0.929   1.008   0.980   0.984   0.964   1.040   1.017   1.012   0.917   0.973   0.813   0.902   0.988   0.935   0.940   0.952   0.910   0.877   0.932   0.966   0.907   0.839   0.836   0.922   0.935   0.876   0.893
   101.00    0.941   0.895   0.906   0.894   0.897   0.932   1.004   1.045   1.066   1.016   1.054   1.009   0.950   1.011   0.908   0.951   0.909   0.969   0.966   1.141   1.046   0.977   0.983   0.994   0.938   1.016   1.000   0.942   0.980   0.963   0.944   0.882   0.946   0.931   0.967   0.905   0.848   0.903   0.892   0.883   0.801
    91.00    0.886   0.918   0.923   0.824   0.937   0.953   1.017   1.040   1.191   1.200   1.063   0.995   1.019   0.962   0.850   0.874   1.030   1.000   1.045   1.126   1.154   1.069   0.985   1.073   1.048   1.048   1.059   1.016   0.876   0.833   0.936   0.986   0.990   0.904   0.974   1.031   0.870   0.969   0.887   0.906   1.045
    81.00    0.861   1.010   0.921   0.954   0.947   1.050   1.101   1.174   1.168   1.159   0.990   0.938   0.915   1.004   0.832   0.870   1.083   1.089   0.915   1.103   1.057   1.179   0.991   1.079   0.997   0.961   1.075   0.994   0.950   0.871   0.890   1.035   0.868   0.863   0.911   0.959   0.808   0.972   0.922   0.928   0.974
    71.00    0.871   0.897   0.959   0.914   0.943   0.946   1.006   1.050   1.141   1.035   0.911   0.960   0.936   0.935   0.948   0.880   0.962   1.047   1.023   1.092   0.975   1.032   1.072   1.023   1.030   0.906   0.972   0.985   0.926   0.906   0.917   1.009   0.955   0.882   1.020   0.971   0.933   0.957   1.036   0.942   1.069
    61.00    0.958   0.980   1.029   0.942   0.889   0.998   0.982   1.059   1.047   1.028   0.839   0.910   0.890   0.968   0.941   0.942   1.004   0.987   1.127   1.084   1.028   1.076   1.126   0.964   1.032   0.971   0.928   0.937   0.898   0.842   0.907   0.911   0.978   0.897   0.924   0.995   0.962   0.935   1.016   1.082   1.024
    51.00    1.002   0.900   0.955   0.877   0.955   0.950   0.988   1.026   0.958   0.918   0.909   0.928   0.926   1.055   0.982   0.907   0.910   0.942   1.044   1.072   1.101   1.038   1.054   0.968   1.099   1.066   0.912   0.986   0.967   0.859   0.896   0.864   0.986   0.894   0.987   1.016   1.067   0.950   1.030   1.064   1.017
    41.00    1.004   0.994   1.062   0.974   0.863   0.917   0.988   1.030   0.886   0.995   0.875   0.869   0.851   0.959   0.819   0.864   0.895   0.958   1.062   1.022   1.047   0.981   1.067   1.000   0.959   1.110   1.008   1.004   0.914   0.930   0.958   0.933   0.960   0.927   0.964   0.990   1.039   0.923   0.999   0.986   0.994
    31.00    1.014   1.023   1.051   0.993   0.896   0.953   1.020   1.120   1.140   0.983   0.940   0.797   0.834   0.908   0.837   0.822   0.966   0.929   0.990   1.030   0.988   0.949   0.985   0.957   0.984   1.040   1.078   1.038   0.933   0.961   0.962   1.052   0.994   1.091   0.944   0.942   1.057   0.963   1.016   1.032   1.057
    21.00    1.022   0.925   0.951   0.900   0.901   0.853   0.943   1.020   1.034   0.971   0.947   0.978   0.862   1.006   0.892   0.900   0.911   0.823   0.862   0.985   0.950   0.928   1.000   0.920   0.970   1.049   1.016   0.933   0.990   0.950   0.885   0.952   0.999   1.008   0.986   0.958   0.979   0.950   1.009   1.010   1.049
    11.00    1.020   0.929   0.896   0.915   0.957   0.981   0.999   0.961   0.952   0.951   0.956   1.028   0.956   0.971   0.900   0.913   0.964   0.950   0.951   0.869   1.018   0.870   1.009   1.014   1.070   1.010   1.066   0.928   0.942   0.913   0.849   0.943   1.006   0.997   0.961   1.003   0.971   1.013   1.019   0.879   1.048
     1.00    0.974   0.946   0.920   0.940   0.974   0.923   0.911   0.962   0.948   0.921   0.920   0.930   0.916   0.983   1.108   0.981   0.923   0.986   0.961   1.027   1.067   0.896   0.945   0.989   1.074   0.986   1.004   0.979   0.956   0.912   0.919   0.906   0.936   0.902   0.963   1.036   0.959   0.932   0.918   0.952   1.001

   Mean standard deviation across all grid points:
      u component:    0.955 m/s
      v component:    0.960 m/s
      w component:    0.972 m/s


U-component (X) statistics from the interpolated hub point:

   Mean =  10.0066 m/s
   TI   =  11.0005 %


Processing complete.  10.969 CPU seconds used.
