
This summary file was generated by TurbSim (from OpenFAST-v3.4.1) on 29-Nov-2024 at 15:50:34.


Runtime Options:

      2052  Random seed #1
         0  Random seed #2
         F  Output binary HH turbulence parameters?
         F  Output formatted turbulence parameters?
         F  Output AeroDyn HH files?
         T  Output AeroDyn FF files?
         F  Output BLADED FF files?
         F  Output tower data?
         F  Output HAWC FF files?
         F  Output formatted FF files?
         T  Output coherent turbulence time step file?
 0 -  NONE  IEC turbulence models scaled to exact specified standard deviation


Turbine/Model Specifications:

        31  Vertical grid-point matrix dimension
        41  Horizontal grid-point matrix dimension
     0.100  Time step [seconds]
   200.000  Analysis time [seconds]
   200.000  Usable output time [seconds]
   151.000  Hub height [m]
   300.000  Grid height [m]
   600.000  Grid width [m]
     0.000  Vertical flow angle [degrees]
     0.000  Horizontal flow angle [degrees]


Meteorological Boundary Conditions:

    IECVKM  IEC von Karman spectral model
         1  IEC standard: IEC 61400-1 Ed. 2: 1999
    10.000  Percent turbulence intensity, IEC 61400-1 Ed. 2: 1999
       NTM  IEC Normal Turbulence Model
       N/A  IEC Extreme Turbulence Model (ETM) "c" parameter [m/s]
       PL   Wind profile type
   150.000  Reference height [m]
    10.000  Reference wind speed [m/s]
       N/A  Jet height [m]
     0.100  Power law exponent
     0.030  Surface roughness length [m]


Non-IEC Meteorological Boundary Conditions:

       N/A  Site latitude [degrees]
       N/A  Gradient Richardson number
       N/A  Friction or shear velocity [m/s]
       N/A  Mixing layer depth [m]
       N/A  Mean hub u'w' Reynolds stress
       N/A  Mean hub u'v' Reynolds stress
       N/A  Mean hub v'w' Reynolds stress


Spatial Coherence Models:

       IEC  u-component coherence model
       IEC  v-component coherence model
       IEC  w-component coherence model
(   12.000, 0.659E-03)  u-component coherence parameters
(   12.000, 0.659E-03)  v-component coherence parameters
(   12.000, 0.659E-03)  w-component coherence parameters
       N/A  Coherence exponent


You have requested that the following file(s) be generated:

   ./TurbulentWind_30WT/FOWTs/Wind\InflowWind_High_WT28.bts (AeroDyn/TurbSim full-field wind file)


Turbulence Simulation Scaling Parameter Summary:

   Turbulence model used                            =  IEC von Karman
   Turbulence characteristic                        =  User-specified
   IEC standard                                     =  IEC 61400-1 Ed. 2: 1999
   Mean wind speed at hub height                    =   10.007 m/s
   Characteristic value of standard deviation       =    1.001 m/s
   Turbulence scale                                 =   21.000 m
   Isotropic integral scale                         =   73.500 m
   Characteristic value of hub turbulence intensity =   10.000%
   Gradient Richardson number                       =    0.000

   Wind profile type                                =  Power law
   Power law exponent                               =    0.100
   Mean shear across rotor disk                     =    0.016 (m/s)/m
   Assumed rotor diameter                           =  300.000 m
   Surface roughness length                         =    0.030 m

   Nyquist frequency of turbulent wind field        =    5.000 Hz

   Number of time steps in the FFT                  =     2600
   Number of time steps output                      =     2600
   Number of points simulated                       =     1271


Mean Flow Angles:

   Vertical   =   0.0 degrees
   Horizontal =   0.0 degrees

Mean Wind Speed Profile:

   Height    Wind Speed   Horizontal Angle  Vertical Angle  U-comp (X)   V-comp (Y)   W-comp (Z)
     (m)        (m/s)         (degrees)       (degrees)       (m/s)        (m/s)        (m/s)   
   ------    ----------   ----------------  --------------  ----------   ----------   ----------
    301.0       10.72            0.00            0.00         10.72         0.00         0.00
    291.0       10.69            0.00            0.00         10.69         0.00         0.00
    281.0       10.65            0.00            0.00         10.65         0.00         0.00
    271.0       10.61            0.00            0.00         10.61         0.00         0.00
    261.0       10.57            0.00            0.00         10.57         0.00         0.00
    251.0       10.53            0.00            0.00         10.53         0.00         0.00
    241.0       10.49            0.00            0.00         10.49         0.00         0.00
    231.0       10.44            0.00            0.00         10.44         0.00         0.00
    221.0       10.40            0.00            0.00         10.40         0.00         0.00
    211.0       10.35            0.00            0.00         10.35         0.00         0.00
    201.0       10.30            0.00            0.00         10.30         0.00         0.00
    191.0       10.24            0.00            0.00         10.24         0.00         0.00
    181.0       10.19            0.00            0.00         10.19         0.00         0.00
    171.0       10.13            0.00            0.00         10.13         0.00         0.00
    161.0       10.07            0.00            0.00         10.07         0.00         0.00
    151.0       10.01            0.00            0.00         10.01         0.00         0.00
    141.0        9.94            0.00            0.00          9.94         0.00         0.00
    131.0        9.87            0.00            0.00          9.87         0.00         0.00
    121.0        9.79            0.00            0.00          9.79         0.00         0.00
    111.0        9.70            0.00            0.00          9.70         0.00         0.00
    101.0        9.61            0.00            0.00          9.61         0.00         0.00
     91.0        9.51            0.00            0.00          9.51         0.00         0.00
     81.0        9.40            0.00            0.00          9.40         0.00         0.00
     71.0        9.28            0.00            0.00          9.28         0.00         0.00
     61.0        9.14            0.00            0.00          9.14         0.00         0.00
     51.0        8.98            0.00            0.00          8.98         0.00         0.00
     41.0        8.78            0.00            0.00          8.78         0.00         0.00
     31.0        8.54            0.00            0.00          8.54         0.00         0.00
     21.0        8.22            0.00            0.00          8.22         0.00         0.00
     11.0        7.70            0.00            0.00          7.70         0.00         0.00
      1.0        6.06            0.00            0.00          6.06         0.00         0.00


Harvested Random Seeds after Generation of the Random Numbers:

   1794526031 Harvested seed # 1
   1971657505 Harvested seed # 2


Hub-Height Simulated Turbulence Statistical Summary:

   Type of Wind        Min (m/s)   Mean (m/s)    Max (m/s)  Sigma (m/s)       TI (%)
   ----------------    ---------   ----------    ---------  -----------       ------
   Longitudinal (u)         7.26        10.01        13.18        0.993        9.924
   Lateral (v)             -3.01         0.00         4.26        0.921        9.202
   Vertical (w)            -2.83         0.00         3.14        1.019       10.186
   U component              7.26        10.01        13.18        0.993        9.924
   V component             -3.01         0.00         4.26        0.921        9.202
   W component             -2.83         0.00         3.14        1.019       10.186
   Horizontal (U&V)         7.28        10.05        13.22        0.996        9.913
   Total                    7.28        10.10        13.25        0.988        9.781

                       Min Reynolds     Mean Reynolds    Max Reynolds    Correlation
   Product             Stress (m/s)^2   Stress (m/s)^2   Stress (m/s)^2  Coefficient
   ----------------    --------------   --------------   --------------  -----------
   u'w'                     -3.306             0.194             5.465         0.192
   u'v'                     -5.019            -0.048             5.082        -0.052
   v'w'                     -5.699             0.006             3.610         0.007


   Friction Velocity (Ustar)  =      0.441 m/s
   Maximum Instantaneous TKE  =      9.372 (m/s)^2
   Maximum Instantaneous CTKE =      2.979 (m/s)^2


Grid Point Variance Summary:

   Y-coord -300.00 -285.00 -270.00 -255.00 -240.00 -225.00 -210.00 -195.00 -180.00 -165.00 -150.00 -135.00 -120.00 -105.00  -90.00  -75.00  -60.00  -45.00  -30.00  -15.00    0.00   15.00   30.00   45.00   60.00   75.00   90.00  105.00  120.00  135.00  150.00  165.00  180.00  195.00  210.00  225.00  240.00  255.00  270.00  285.00  300.00

   Height   Standard deviation at grid points for the u component:
   301.00    1.024   0.912   0.928   1.061   1.029   0.930   0.892   0.982   1.028   0.941   0.972   0.900   1.033   1.063   1.057   1.132   1.116   1.118   1.004   1.129   1.139   1.037   0.987   0.953   1.015   1.115   1.056   1.114   0.991   0.921   0.828   0.897   0.848   0.889   0.933   0.828   0.845   0.891   0.883   0.887   0.908
   291.00    1.032   0.888   0.970   0.999   1.063   1.011   1.015   1.041   1.077   0.973   0.886   0.866   1.064   0.980   1.000   1.039   1.091   1.156   1.108   1.262   1.099   1.073   1.026   0.958   0.922   1.060   1.044   1.037   1.022   0.981   0.943   0.901   0.903   0.911   1.028   0.960   1.024   0.920   0.901   0.764   0.906
   281.00    0.962   0.913   0.963   1.054   1.132   1.139   1.081   1.050   0.984   0.868   0.869   1.013   1.070   0.995   0.938   1.019   1.159   1.101   1.108   1.052   1.220   1.177   1.251   1.059   0.949   1.012   1.007   0.913   0.985   0.884   1.034   0.971   0.873   0.908   0.973   1.064   0.942   0.883   0.914   0.900   0.923
   271.00    1.027   0.972   1.144   1.132   1.060   0.999   1.057   1.101   0.897   0.848   0.838   0.930   1.047   0.986   0.979   1.000   1.074   1.030   1.138   1.138   1.161   1.188   1.148   1.044   0.892   0.908   0.977   0.799   0.804   0.923   1.040   0.889   0.943   1.040   1.016   0.936   0.900   0.887   0.857   0.924   0.912
   261.00    1.046   1.054   1.093   1.070   1.019   1.046   0.964   1.046   0.870   0.840   0.967   0.984   0.901   1.022   0.940   0.882   1.017   1.153   1.052   1.221   1.234   1.214   1.075   1.005   0.890   0.920   0.991   0.856   0.774   0.833   0.949   0.926   0.941   0.986   1.087   0.974   0.873   0.933   0.900   0.860   0.751
   251.00    1.003   0.954   0.949   0.983   1.060   1.053   0.959   1.029   0.795   0.850   0.870   0.859   0.848   1.042   1.050   0.942   0.967   1.097   1.133   1.086   1.270   1.254   1.147   0.957   0.843   0.868   1.083   0.954   1.043   0.821   0.890   1.036   0.955   1.083   1.141   0.944   0.934   0.986   0.954   0.947   0.896
   241.00    0.949   1.165   0.992   0.878   0.987   0.924   0.963   1.028   0.825   0.772   0.796   0.902   0.851   0.927   0.974   1.008   1.045   0.998   1.164   1.221   1.156   1.174   1.153   1.003   0.972   0.954   1.053   0.997   1.005   0.876   0.872   0.845   0.992   1.083   1.117   1.119   0.972   1.002   1.063   1.017   0.989
   231.00    0.913   1.090   0.981   0.938   0.954   0.936   0.984   1.066   0.980   0.797   0.875   0.883   0.904   0.918   0.963   0.969   0.990   1.057   1.192   1.149   1.210   1.108   1.033   1.087   1.038   0.955   1.142   1.094   1.119   0.938   0.915   0.802   1.002   1.029   1.131   1.076   1.035   0.903   1.070   1.073   0.946
   221.00    0.906   1.017   0.988   0.985   0.923   0.942   1.003   0.967   0.919   0.961   0.948   0.896   0.936   0.827   0.916   0.803   0.921   1.077   1.213   1.112   1.099   0.983   1.135   1.105   1.042   1.061   1.117   1.080   1.052   1.028   0.947   0.858   1.068   1.032   1.080   0.982   0.928   0.965   1.102   1.106   1.065
   211.00    0.935   1.029   1.015   0.929   0.947   0.989   0.968   0.907   0.861   0.930   0.961   0.957   0.877   0.888   0.940   0.883   0.840   1.095   1.149   1.046   1.049   0.977   1.129   1.087   1.086   1.067   1.132   1.129   0.930   1.067   0.952   0.829   1.088   1.101   0.986   0.895   0.832   0.970   1.080   1.018   0.983
   201.00    1.086   1.047   0.983   0.945   0.905   1.036   0.952   0.898   0.889   0.865   0.917   0.866   0.964   0.984   0.908   0.991   0.973   1.077   1.109   1.093   1.180   0.983   1.108   1.089   0.951   1.011   1.009   1.045   0.972   0.979   0.900   0.865   1.013   1.014   0.968   1.023   0.880   1.092   0.993   0.995   1.047
   191.00    1.098   1.081   0.825   0.999   1.005   1.102   0.954   1.021   0.921   0.972   0.890   0.935   0.917   0.836   1.013   1.029   0.941   0.997   1.060   1.058   1.123   1.054   1.065   1.040   1.005   0.977   1.087   1.113   0.972   0.921   0.842   0.924   0.976   0.985   0.970   0.966   0.908   1.029   1.117   0.913   0.912
   181.00    1.084   0.982   0.939   0.973   1.049   1.158   1.075   1.080   0.896   0.982   0.924   0.963   0.940   0.933   1.050   1.029   1.014   1.000   1.014   1.066   1.120   0.980   0.987   1.049   0.960   1.053   1.041   0.972   1.003   0.998   0.952   0.937   1.037   0.987   0.964   0.850   0.802   1.010   1.076   0.887   0.937
   171.00    1.031   0.980   0.961   1.040   1.203   1.134   1.110   1.065   0.962   0.959   0.827   0.937   0.960   0.938   0.999   1.095   1.035   1.105   1.029   1.043   1.014   0.922   1.013   1.122   1.090   1.048   0.990   0.926   0.873   0.956   0.964   0.942   0.869   0.989   0.932   0.973   0.908   0.996   1.025   0.980   0.883
   161.00    1.067   1.012   0.928   1.192   1.313   1.193   1.086   1.016   0.969   0.863   0.945   0.873   0.945   0.939   0.999   1.085   1.049   1.128   1.164   1.120   1.079   1.030   1.032   1.049   1.104   1.101   1.085   1.003   0.956   1.022   0.921   0.867   0.952   1.006   0.890   0.902   0.842   0.967   0.959   0.899   0.905
   151.00    0.975   1.091   0.974   1.097   1.130   1.134   1.027   0.924   0.901   0.915   0.925   0.941   0.845   0.919   0.975   0.937   0.939   0.937   0.942   1.020   0.993   1.093   1.097   0.975   1.036   0.940   1.121   1.021   1.023   1.054   0.829   0.888   0.957   0.915   0.938   0.783   0.812   0.969   0.980   0.910   1.025
   141.00    0.920   1.069   1.094   1.058   1.031   1.027   1.007   0.916   0.906   0.918   0.863   0.906   0.876   0.915   0.986   0.864   0.939   0.888   0.954   0.955   0.986   1.121   1.098   0.999   0.991   1.048   1.143   1.057   1.077   1.057   0.861   0.955   0.898   0.919   0.887   0.872   0.933   0.877   0.883   0.758   0.967
   131.00    1.003   1.047   1.029   1.128   1.084   1.054   0.942   0.866   0.929   0.928   0.853   0.880   0.736   0.856   0.940   0.940   0.910   0.947   0.895   0.939   0.861   1.058   1.095   0.988   1.008   1.153   1.140   1.135   1.064   1.042   0.983   0.939   0.930   0.923   0.998   0.919   0.880   0.817   0.759   0.831   0.889
   121.00    1.116   1.097   1.083   0.975   1.081   0.914   0.866   0.887   0.929   0.989   0.963   0.874   0.804   0.831   0.963   0.905   0.957   0.971   0.865   0.910   0.956   1.057   0.991   1.111   1.074   1.141   1.136   1.058   1.070   0.983   0.881   0.982   0.937   0.853   0.996   0.918   0.837   0.786   0.758   0.868   0.867
   111.00    1.177   1.064   1.030   1.052   1.111   0.962   0.810   0.919   0.901   0.971   0.961   0.813   0.803   0.851   0.982   0.960   0.874   0.885   0.912   0.877   0.855   1.019   0.976   1.084   1.084   1.100   0.980   0.960   1.106   0.967   1.046   1.001   0.925   0.961   0.997   0.957   0.885   0.800   0.788   0.894   0.854
   101.00    1.114   1.094   1.078   1.138   1.011   0.913   0.854   0.864   0.951   0.980   0.965   0.924   0.867   0.921   1.011   0.937   0.839   0.860   0.890   0.946   1.147   1.109   1.043   1.067   1.131   1.112   1.004   0.938   0.987   0.905   0.922   1.023   0.961   0.926   0.923   0.853   0.877   0.792   0.770   0.990   0.936
    91.00    1.046   1.095   1.033   1.052   0.974   0.899   0.909   0.931   0.924   0.943   0.878   0.944   0.981   1.001   1.035   0.947   0.838   0.863   0.857   0.956   1.139   1.092   1.051   1.167   1.145   1.097   0.996   0.917   0.919   0.856   0.851   0.918   0.908   0.995   1.069   0.960   0.822   0.901   0.772   0.980   1.029
    81.00    1.062   1.105   0.938   0.971   0.934   0.902   0.850   0.889   0.975   0.852   0.881   0.910   0.918   1.107   1.057   1.091   0.897   0.804   0.853   1.044   0.964   1.095   1.040   1.000   1.167   1.121   1.006   0.993   0.817   0.814   0.789   0.920   0.893   1.017   1.091   1.001   0.928   0.864   0.951   1.082   1.058
    71.00    0.999   1.133   1.106   0.991   0.935   0.867   0.922   0.860   0.923   0.859   0.850   0.886   1.021   0.997   0.993   0.943   0.867   0.840   0.877   1.026   0.906   1.078   1.134   1.201   1.258   1.164   1.003   0.922   0.941   0.857   0.887   0.960   0.905   0.921   1.006   0.923   0.922   0.925   0.986   0.973   1.047
    61.00    0.978   1.027   1.113   1.001   0.855   0.834   0.915   0.794   0.912   0.922   0.897   0.918   0.987   0.915   0.983   1.005   0.788   0.895   0.941   1.007   1.060   1.145   1.101   1.222   1.236   1.146   1.098   0.960   1.023   0.959   1.045   1.051   1.026   0.966   1.001   1.026   0.829   0.916   1.025   1.030   1.029
    51.00    1.000   1.042   1.115   1.051   0.804   0.851   0.970   0.948   0.853   0.925   0.869   0.884   1.044   0.960   1.055   1.043   0.821   0.866   0.967   0.962   0.999   1.109   1.165   1.171   1.120   1.058   1.073   1.042   1.007   0.982   1.073   0.941   1.038   0.949   1.066   1.021   0.880   0.984   0.989   0.916   0.998
    41.00    1.077   0.949   1.063   0.902   0.939   0.886   0.913   0.849   0.830   0.910   0.925   0.857   1.008   1.012   1.117   1.116   1.069   0.927   0.949   1.021   1.150   1.045   1.116   1.121   1.014   1.005   1.121   1.109   1.035   1.008   0.986   0.894   0.926   0.993   1.028   1.003   0.996   0.982   0.998   0.903   0.861
    31.00    1.069   1.083   1.103   0.932   0.895   0.924   1.006   0.988   0.895   0.855   0.841   0.825   0.996   1.027   1.066   1.117   1.019   1.022   1.082   1.052   1.128   1.134   1.100   1.080   1.047   1.129   1.055   1.040   1.124   0.982   0.987   1.004   0.960   0.995   0.984   0.998   0.930   1.059   0.970   0.902   0.951
    21.00    1.060   1.052   1.034   0.948   0.974   0.934   0.957   0.948   0.842   0.810   0.848   0.899   1.008   0.988   1.005   1.043   1.013   1.029   1.018   1.100   1.139   1.131   1.095   1.127   1.105   1.085   1.099   1.025   1.070   0.933   0.982   1.004   1.025   0.901   1.002   1.072   1.023   0.957   0.999   0.902   0.974
    11.00    1.042   1.012   1.063   1.078   1.057   0.900   0.955   0.891   0.832   0.857   0.898   0.974   0.918   0.932   0.976   0.977   0.863   1.066   1.167   1.071   1.097   1.072   1.091   1.110   1.145   1.067   1.145   1.134   0.989   1.071   0.945   0.990   1.135   0.996   0.953   0.999   1.103   1.017   1.004   1.037   1.018
     1.00    0.963   0.952   1.008   1.026   0.961   1.048   0.976   0.870   0.914   0.875   0.866   0.927   0.825   0.935   0.967   1.009   0.902   0.897   1.045   1.105   1.021   1.000   1.059   1.131   1.084   1.025   1.089   1.009   1.082   0.993   1.043   1.087   1.120   0.946   1.026   1.054   1.060   0.971   1.087   1.064   1.061

   Height   Standard deviation at grid points for the v component:
   301.00    0.887   0.956   1.017   1.056   1.029   0.937   0.907   1.076   0.996   0.969   0.943   0.983   0.956   1.044   0.960   0.957   0.944   0.915   0.848   0.868   0.872   0.964   1.029   0.991   0.936   1.019   0.872   0.928   0.886   1.008   0.977   0.998   0.969   0.995   0.944   0.975   0.955   0.948   0.950   0.942   0.994
   291.00    0.903   0.863   0.935   1.027   1.011   0.909   0.912   1.019   1.035   1.048   0.947   0.891   0.943   0.992   0.929   0.924   0.874   1.005   0.974   0.876   0.912   1.050   1.000   1.049   0.999   0.964   0.865   0.917   0.948   0.956   0.982   0.962   0.958   0.930   0.984   0.976   0.918   0.961   0.884   0.941   0.992
   281.00    0.878   0.862   0.859   0.972   1.005   0.981   0.874   0.953   1.086   0.939   1.012   0.840   0.871   0.920   0.949   0.897   0.894   0.999   0.975   0.825   0.799   0.906   0.971   0.985   1.072   0.955   0.926   0.892   0.971   0.897   0.941   0.908   0.908   0.902   0.987   0.932   0.902   0.871   0.845   1.015   1.062
   271.00    0.865   0.943   0.896   0.946   0.967   1.064   0.983   1.028   0.999   0.986   1.072   0.982   0.960   1.016   0.954   0.976   0.917   0.949   0.948   0.870   0.886   0.959   0.961   0.968   0.863   0.948   0.907   0.867   0.862   0.877   0.838   0.884   0.943   0.946   0.912   0.848   0.849   0.811   0.821   0.968   1.110
   261.00    0.890   0.839   0.893   0.905   1.037   1.002   0.968   0.991   0.945   0.996   1.073   1.007   0.884   0.963   0.961   1.006   0.892   0.928   0.949   0.935   0.878   0.981   0.916   0.953   0.977   0.962   0.853   0.921   0.935   0.889   0.864   0.877   0.859   0.934   0.832   0.906   0.970   0.888   1.077   0.946   1.076
   251.00    0.898   0.952   0.901   0.964   0.984   1.092   1.040   0.955   1.001   0.949   0.945   1.076   0.917   1.023   1.008   0.944   0.884   0.910   0.932   0.944   0.836   0.943   0.886   1.016   0.910   0.994   0.914   0.864   0.878   0.876   0.959   0.915   0.901   0.859   0.861   0.951   0.919   1.022   1.051   1.126   1.025
   241.00    0.856   0.913   0.946   0.919   0.850   0.980   0.955   0.886   0.984   0.961   1.004   1.030   0.933   1.076   0.969   0.899   0.985   0.920   0.965   0.882   0.917   0.905   0.802   0.903   0.951   0.966   0.923   0.932   0.856   0.892   0.843   0.973   0.957   0.809   0.871   0.928   1.006   0.986   1.080   1.016   1.011
   231.00    0.884   0.895   1.039   1.004   0.987   0.969   0.946   0.883   0.970   1.027   1.039   0.891   0.875   1.047   0.939   1.040   0.955   0.855   0.899   0.909   0.848   0.805   0.929   0.937   0.872   0.863   0.958   0.986   0.782   0.859   0.883   0.955   0.970   0.966   0.924   0.992   0.992   0.968   1.006   1.024   1.007
   221.00    0.973   0.949   1.090   1.079   0.899   0.908   0.973   0.854   0.877   1.001   1.036   1.091   0.943   0.913   0.996   1.036   0.964   0.932   0.910   1.034   0.871   0.901   0.892   0.934   0.835   0.879   0.892   0.965   0.860   0.916   0.849   0.920   1.000   0.994   0.928   0.902   0.973   0.958   0.945   0.993   1.017
   211.00    1.002   1.040   1.040   1.161   1.026   0.870   0.973   0.946   0.965   1.002   1.053   1.106   0.986   0.922   0.843   0.993   0.924   0.929   0.996   0.968   0.857   0.838   0.839   0.872   0.820   0.951   0.884   0.913   0.957   0.946   0.980   0.989   1.064   1.051   0.935   0.866   0.968   0.850   0.840   0.912   0.885
   201.00    0.949   0.959   1.092   1.094   1.031   0.906   0.971   0.963   0.919   1.048   1.019   1.002   0.927   0.957   0.949   0.959   0.983   0.866   0.965   0.937   0.965   0.831   0.820   0.830   0.881   0.925   0.817   0.911   0.959   0.960   1.020   0.949   1.096   1.038   0.977   1.021   0.971   1.034   0.916   0.964   0.894
   191.00    0.908   0.981   0.972   1.022   0.993   0.915   0.953   0.909   0.986   1.052   1.092   1.043   0.956   0.999   0.973   0.923   0.945   0.929   0.993   0.966   0.967   0.877   0.834   0.847   0.822   0.892   0.940   1.011   1.030   1.018   1.063   0.997   1.071   1.062   1.089   1.007   0.997   0.990   0.907   0.925   0.990
   181.00    0.873   0.945   0.970   0.994   0.985   0.946   0.874   0.873   0.966   1.033   1.123   1.154   0.900   1.076   1.068   0.976   0.991   1.014   0.867   0.933   0.869   0.828   0.851   0.836   0.826   0.889   0.925   0.982   0.950   1.020   1.048   1.008   1.009   1.039   1.004   0.932   0.976   0.934   0.889   0.901   0.962
   171.00    0.979   0.890   0.961   0.962   0.931   0.940   0.887   0.976   0.970   0.999   1.131   1.131   1.033   1.071   0.964   0.936   1.071   1.021   0.934   0.917   0.894   0.823   0.844   0.942   0.868   0.869   0.958   0.952   1.000   0.907   0.940   0.955   1.067   1.099   0.926   0.946   0.957   0.937   0.938   0.915   0.989
   161.00    0.970   0.896   0.976   0.920   0.963   0.876   0.939   1.019   0.978   1.042   1.059   1.014   1.012   0.997   0.940   0.945   1.012   0.991   0.985   0.993   0.906   0.923   0.917   0.940   0.891   0.782   0.826   0.963   0.972   0.942   0.884   0.948   1.045   1.021   0.931   0.960   0.939   0.898   0.954   0.957   1.030
   151.00    0.981   1.031   1.010   0.869   0.935   1.002   0.930   0.995   0.871   0.910   0.929   0.961   0.947   0.934   0.887   0.961   0.926   0.872   0.927   0.972   0.921   0.900   0.961   1.045   1.023   0.947   0.936   0.990   0.991   0.887   0.841   1.018   0.979   0.970   0.892   0.867   0.952   0.962   0.988   1.000   0.985
   141.00    0.953   0.958   1.081   0.993   0.971   0.914   0.946   0.889   0.849   0.876   0.827   0.921   0.936   0.929   0.808   0.913   0.926   0.936   0.921   0.884   0.965   0.937   0.984   0.957   0.997   0.997   0.995   1.016   0.999   0.932   0.944   0.957   1.050   1.031   1.004   0.866   0.973   1.011   0.959   0.956   0.967
   131.00    0.896   0.949   1.076   1.037   0.959   0.920   0.895   0.859   0.961   0.915   0.886   0.934   0.924   0.867   0.852   1.007   0.934   0.880   0.915   0.953   0.904   0.855   0.935   1.029   1.093   1.062   0.960   0.925   0.965   0.825   1.004   0.919   1.109   0.985   1.031   0.860   0.900   0.991   0.936   0.910   0.993
   121.00    0.874   0.912   1.062   1.014   0.877   1.010   0.936   0.872   0.998   0.953   0.853   0.892   0.901   0.846   0.953   1.007   1.003   0.846   0.830   0.907   0.819   0.839   0.908   0.992   1.056   0.960   0.980   0.977   0.989   0.949   1.023   0.994   1.087   1.085   1.079   0.976   0.799   0.936   0.920   0.936   1.085
   111.00    0.930   0.913   0.955   1.014   0.991   0.961   0.925   0.912   0.970   1.021   0.886   0.826   0.949   0.910   0.961   1.046   1.038   0.970   0.899   0.888   0.880   0.930   0.969   1.019   0.930   0.840   0.923   0.961   0.992   1.001   1.000   1.011   1.048   1.144   1.035   0.896   0.808   0.936   0.927   0.883   0.966
   101.00    1.016   0.946   1.008   0.958   0.971   1.003   0.864   0.906   0.929   0.939   1.011   0.867   0.943   0.898   0.933   0.975   0.997   0.946   0.888   0.916   0.857   0.858   0.908   0.915   0.863   0.907   0.880   0.947   1.076   0.922   0.950   0.994   1.086   1.075   1.002   0.985   0.871   0.866   0.961   0.848   0.852
    91.00    0.905   0.887   0.893   0.915   0.918   0.968   0.859   0.773   0.846   0.902   0.945   0.918   0.910   0.918   0.932   0.973   0.997   0.950   0.854   0.888   0.902   0.923   0.974   0.971   0.772   0.849   0.899   0.903   0.953   0.883   1.020   0.995   1.090   0.987   1.021   1.038   0.943   0.879   0.933   0.821   0.826
    81.00    0.915   0.866   0.921   0.826   0.859   0.903   0.836   0.929   0.908   0.972   0.964   0.929   0.892   1.017   0.895   0.966   0.952   0.864   0.894   0.913   0.949   0.891   0.947   0.849   0.812   0.906   0.967   0.915   0.923   0.927   0.968   1.027   1.042   0.989   0.976   1.005   0.984   0.877   0.895   0.939   0.858
    71.00    0.930   0.937   0.887   0.904   0.838   0.860   0.870   0.781   0.821   0.979   0.914   0.986   1.092   1.143   0.962   0.940   0.882   0.845   0.921   0.943   0.982   0.914   0.934   0.943   0.871   0.855   0.974   0.835   0.932   0.921   0.934   0.915   0.929   0.952   0.908   0.904   0.843   0.876   0.783   0.904   0.923
    61.00    0.875   0.875   0.860   0.932   0.872   0.901   0.845   0.855   0.950   0.929   0.920   1.074   1.143   1.109   0.964   0.977   0.945   0.879   1.049   1.053   1.035   0.946   0.867   0.938   0.865   0.921   0.951   0.941   0.976   0.941   0.799   0.926   1.003   0.928   0.892   0.834   0.886   0.912   0.792   0.853   0.819
    51.00    0.902   0.877   0.918   0.819   0.854   0.899   0.997   0.928   0.895   0.980   0.907   0.999   1.131   1.086   1.090   1.048   0.938   0.952   1.110   1.091   0.909   0.791   0.922   0.998   0.919   0.947   0.906   0.980   0.967   0.906   0.936   0.893   0.890   0.995   0.912   0.881   0.851   0.868   0.859   0.854   0.805
    41.00    0.946   0.859   0.982   0.908   0.917   0.984   1.008   1.014   0.997   1.013   1.028   1.051   1.103   1.053   0.987   0.983   1.017   0.907   1.027   1.128   1.005   0.923   0.955   0.929   0.987   0.940   0.938   0.911   0.861   0.910   0.952   0.951   0.971   1.053   0.906   0.940   0.930   0.839   0.909   0.855   0.896
    31.00    0.985   0.915   0.968   0.938   1.000   0.894   1.070   0.973   1.100   1.002   0.992   1.079   1.099   0.957   0.897   0.911   0.967   1.044   1.056   1.033   1.017   0.973   1.019   0.895   0.926   0.882   0.860   0.909   0.946   0.956   0.924   0.930   1.022   1.038   1.021   0.917   1.020   0.939   0.894   0.955   0.874
    21.00    1.058   0.851   0.920   1.035   1.067   0.962   0.979   1.000   1.041   1.025   1.034   0.993   0.983   0.927   0.911   0.835   0.966   1.080   1.149   1.130   1.027   0.927   1.021   0.891   0.933   0.910   0.879   0.918   0.969   0.946   0.937   0.829   0.902   1.054   1.035   0.993   1.106   1.080   0.988   0.941   0.910
    11.00    1.078   0.856   0.975   0.986   1.077   0.983   0.926   0.960   1.092   1.027   1.079   1.033   0.969   1.011   0.891   0.822   0.926   1.017   1.111   1.033   0.964   0.907   0.932   0.887   0.915   1.009   0.863   0.899   0.870   0.966   0.936   0.900   0.964   1.092   0.929   1.030   1.094   1.045   0.997   0.967   0.922
     1.00    0.974   0.964   0.916   1.033   1.075   1.037   0.920   0.906   1.042   1.033   1.046   1.019   0.924   0.988   0.984   0.880   0.859   0.947   0.980   1.017   0.937   0.957   0.910   0.987   0.931   0.963   0.850   0.942   0.908   0.915   0.949   0.938   0.966   1.090   0.979   1.006   0.968   1.020   1.022   0.986   0.952

   Height   Standard deviation at grid points for the w component:
   301.00    0.906   0.830   0.877   0.953   0.984   1.092   0.966   1.153   1.039   1.035   1.033   0.979   0.983   1.093   0.927   1.031   0.977   1.015   1.051   0.951   0.822   1.059   1.090   1.143   1.137   1.027   1.125   0.987   0.921   0.972   0.783   0.881   0.909   0.901   0.836   0.868   0.919   1.012   0.960   1.007   0.946
   291.00    0.858   0.895   0.897   0.919   0.950   1.096   1.055   1.071   0.998   0.979   1.003   1.103   0.936   1.019   0.908   1.018   1.073   1.002   0.953   1.004   1.110   0.987   1.026   1.038   1.052   1.021   1.028   1.050   0.967   0.968   0.937   0.860   0.887   0.822   0.900   0.992   0.902   0.930   0.932   0.960   0.944
   281.00    0.822   0.887   0.935   0.995   0.991   1.135   1.122   1.065   0.975   0.902   1.013   1.044   0.933   0.932   0.943   0.962   1.092   0.962   0.899   1.014   1.049   1.047   0.964   0.998   0.960   0.948   0.976   0.881   0.923   0.863   0.893   0.871   0.945   0.951   0.921   1.041   0.911   0.868   0.960   0.901   0.957
   271.00    0.916   0.891   0.936   1.066   1.064   1.071   1.128   1.080   0.954   1.003   1.063   1.028   0.917   0.971   0.986   0.923   1.043   0.954   0.974   0.931   1.047   1.013   0.947   1.046   0.988   0.945   0.931   0.926   0.893   0.901   0.944   0.953   0.969   1.045   0.926   0.898   0.861   0.862   0.991   0.935   0.980
   261.00    0.942   0.894   0.945   0.923   0.938   0.934   0.919   1.021   1.013   0.899   0.997   0.977   0.840   0.976   0.948   0.978   1.008   1.025   0.918   1.001   0.950   1.021   0.882   0.876   0.901   0.926   0.866   0.919   0.913   0.875   0.955   0.917   0.970   0.935   0.900   0.922   0.900   0.994   0.985   0.927   0.933
   251.00    0.919   1.011   0.945   0.904   0.910   0.884   0.987   0.953   0.994   0.916   0.953   0.955   0.924   0.966   0.869   0.881   0.993   0.998   0.905   1.130   1.129   1.018   0.966   0.980   0.932   0.962   0.897   0.857   0.813   0.932   1.016   0.988   1.022   0.927   0.900   0.996   0.951   0.954   1.018   1.030   0.867
   241.00    0.911   1.054   0.963   0.968   0.893   0.949   0.958   0.900   1.011   1.038   0.986   0.892   0.914   0.905   0.908   0.883   0.968   1.005   1.119   1.122   1.061   1.118   0.998   1.065   0.988   0.935   0.901   0.846   0.879   0.910   0.975   0.994   0.980   0.841   0.999   0.950   0.959   1.011   1.029   0.951   0.907
   231.00    0.887   1.087   0.967   0.960   0.923   0.899   0.927   0.977   0.943   0.964   0.971   0.899   0.907   0.919   0.993   1.028   1.021   0.948   0.972   1.065   1.047   1.044   1.027   0.992   0.917   0.986   0.997   0.976   0.873   0.891   0.900   0.972   0.970   0.899   0.904   0.907   0.870   0.919   0.896   0.893   0.945
   221.00    1.038   1.080   1.018   0.970   0.901   0.934   0.998   0.996   0.986   0.897   0.945   0.936   0.871   0.983   0.972   1.005   1.068   0.932   0.973   0.936   0.930   1.031   1.064   0.897   0.981   0.892   0.926   0.864   0.921   0.952   0.881   1.014   1.008   0.954   0.854   0.952   0.909   0.906   0.807   0.967   0.975
   211.00    0.960   1.081   1.019   0.955   1.004   0.951   0.945   0.976   0.976   0.816   0.911   0.937   0.961   1.012   0.945   0.957   0.904   0.968   0.962   0.880   0.885   0.991   0.967   0.905   0.974   0.930   0.851   0.881   0.908   0.926   0.933   0.972   0.895   0.875   0.920   0.952   0.987   0.891   0.946   0.973   1.071
   201.00    0.959   1.060   1.017   0.947   1.038   0.929   0.936   0.928   1.001   0.834   0.955   1.024   0.948   0.962   0.890   0.869   0.930   0.955   1.078   0.942   1.087   1.043   0.954   0.990   0.965   0.981   0.771   0.850   0.886   0.979   0.955   0.963   0.882   0.836   0.857   0.875   0.957   0.874   0.947   1.009   1.008
   191.00    0.964   1.064   1.061   1.029   0.976   1.044   0.889   0.892   0.965   0.918   0.906   0.997   1.034   0.885   0.804   0.854   0.958   0.971   1.029   1.005   1.090   1.009   0.939   0.850   0.953   0.967   0.844   0.906   0.866   0.921   0.934   1.028   0.912   0.841   0.885   0.875   0.969   0.892   0.822   0.970   1.009
   181.00    0.945   0.926   0.987   0.970   1.008   0.921   0.951   0.973   1.031   0.881   0.871   0.917   0.967   0.785   0.913   0.912   0.946   1.007   1.042   1.059   1.083   1.068   0.958   0.837   0.963   0.956   0.862   0.889   0.999   0.901   0.995   1.088   0.905   0.906   0.823   0.922   0.999   0.959   0.827   0.913   0.886
   171.00    0.923   0.957   0.936   0.943   0.912   0.976   0.918   0.915   0.900   0.957   0.898   0.901   0.955   0.967   0.950   0.912   0.982   1.039   1.162   1.027   1.102   1.075   0.979   0.908   0.944   0.929   0.889   0.912   0.887   0.937   0.957   0.962   0.883   0.880   0.886   0.929   1.004   0.982   0.863   0.929   0.862
   161.00    0.868   0.938   0.897   0.916   0.964   0.924   0.974   0.888   0.885   0.933   0.906   0.832   0.923   0.900   0.987   0.904   0.946   1.002   1.068   0.937   0.925   1.073   1.071   1.090   1.060   1.033   0.873   0.885   0.874   0.977   0.913   0.898   0.892   0.981   0.885   0.961   0.880   0.914   0.859   0.936   0.946
   151.00    0.879   0.941   0.852   0.993   0.986   1.029   0.948   0.986   0.969   0.971   0.926   0.880   0.930   0.930   0.988   0.999   0.957   0.962   0.969   0.981   1.019   1.117   0.990   1.057   1.015   1.111   1.044   0.978   0.974   0.934   0.845   0.904   0.987   0.996   0.985   0.985   0.904   0.868   0.966   1.007   0.936
   141.00    0.978   0.884   0.999   0.942   0.921   0.975   1.005   1.036   0.940   0.884   0.865   0.870   0.908   0.956   0.943   0.970   0.958   1.019   1.065   0.996   1.035   1.125   0.925   1.007   1.019   1.070   0.985   0.962   1.027   1.009   0.930   0.968   1.064   0.956   0.935   0.992   0.905   0.883   0.922   0.937   0.968
   131.00    0.892   0.941   0.947   0.991   0.971   0.907   0.973   0.916   0.919   0.864   0.843   0.864   0.909   0.971   0.892   0.972   0.995   1.112   1.087   1.095   1.052   1.096   0.957   0.938   0.937   1.031   0.997   0.926   1.071   1.053   1.093   1.016   1.021   0.986   0.962   0.968   0.975   0.875   0.933   0.952   0.959
   121.00    0.904   0.960   0.975   0.936   1.005   1.036   0.933   0.947   0.847   0.803   0.942   0.920   0.901   0.913   0.933   0.946   0.992   1.034   1.120   1.125   1.033   1.078   0.986   0.985   1.007   1.015   0.955   0.947   1.068   0.959   1.042   0.933   0.906   0.959   0.928   0.912   0.896   0.903   0.900   1.007   1.011
   111.00    0.939   0.902   0.923   1.052   1.019   1.101   0.966   0.913   0.908   0.856   0.974   0.944   0.873   0.926   0.893   0.960   1.067   0.983   1.087   1.122   1.136   0.929   0.974   0.960   1.072   1.006   0.942   0.981   1.024   1.086   1.014   0.990   0.901   0.922   0.949   0.853   0.916   0.975   0.940   1.016   0.993
   101.00    0.956   0.936   1.005   1.055   1.086   1.113   1.003   0.951   1.002   0.974   1.019   0.898   0.908   0.880   0.909   1.013   0.919   1.014   1.031   1.038   1.029   1.053   0.968   0.856   0.981   1.055   0.948   1.058   1.100   0.948   1.059   1.047   0.992   0.855   0.925   0.920   0.930   0.797   0.909   0.928   1.012
    91.00    1.015   0.887   0.993   1.028   1.021   1.049   0.888   0.928   1.037   1.130   1.039   0.950   0.844   1.014   0.946   0.958   0.920   0.884   0.991   0.886   1.071   0.942   0.843   1.007   0.937   1.030   1.027   1.019   1.081   1.003   1.027   0.953   0.957   0.990   0.969   0.879   0.977   0.859   0.966   0.950   1.042
    81.00    0.982   0.858   0.942   0.968   1.043   1.048   1.057   1.096   1.153   1.234   1.128   0.959   0.828   0.968   0.966   1.034   0.937   0.942   0.862   0.983   0.972   0.904   0.861   0.949   0.944   1.000   1.044   1.046   0.977   1.054   1.000   0.948   0.866   1.034   0.921   0.870   0.962   0.967   1.010   1.031   1.111
    71.00    0.997   1.011   0.957   0.893   0.962   1.067   1.011   1.045   1.113   1.156   1.143   0.947   0.981   0.897   0.896   0.921   0.950   0.927   0.904   1.075   1.027   0.915   0.983   0.940   1.018   1.041   0.997   1.032   0.941   1.120   1.053   0.992   0.925   0.938   0.929   0.887   0.951   1.023   1.042   0.954   1.109
    61.00    0.979   0.984   0.892   0.766   0.939   1.026   0.972   0.969   1.054   1.045   1.045   0.979   0.981   0.957   0.776   0.849   0.902   0.839   0.865   0.985   1.014   0.953   0.905   1.022   1.127   1.067   1.013   1.087   0.983   0.967   1.057   1.068   1.034   0.992   0.922   0.895   0.957   0.995   1.036   1.043   1.092
    51.00    0.958   1.029   0.853   0.880   0.879   0.967   0.974   1.092   1.078   1.060   1.109   1.025   1.016   0.893   0.890   0.820   0.887   0.813   0.943   0.935   0.920   0.871   0.919   0.961   1.095   1.021   1.026   0.977   0.962   1.017   0.997   1.018   1.022   0.978   0.980   0.972   0.912   0.956   0.933   1.018   0.990
    41.00    0.996   0.950   0.896   0.867   0.897   0.924   1.004   1.070   1.002   1.066   1.049   1.079   0.983   0.973   1.040   0.902   0.851   0.874   0.899   0.841   0.899   0.898   0.996   1.012   1.077   0.995   0.912   0.985   1.024   0.971   0.920   1.034   0.971   0.896   0.863   0.946   1.037   0.977   0.950   0.915   1.000
    31.00    0.959   0.934   0.893   0.915   0.903   0.918   0.968   1.010   0.908   0.926   0.939   1.033   0.929   0.923   1.012   0.998   0.961   1.017   1.023   0.901   0.881   0.903   0.979   1.013   0.951   1.002   1.019   0.989   0.908   0.935   1.007   1.026   1.033   0.960   0.838   0.986   1.027   0.890   0.933   0.961   1.022
    21.00    0.983   0.931   0.952   1.063   0.915   0.953   1.035   1.048   0.922   0.982   0.976   0.951   0.912   0.815   1.089   1.057   1.113   1.085   1.098   0.988   0.912   0.902   0.921   0.920   0.902   0.958   0.963   0.959   0.821   0.885   0.933   1.144   1.033   1.095   1.071   0.924   0.900   0.957   0.995   1.039   0.939
    11.00    0.958   0.871   0.941   0.977   0.955   1.041   1.029   1.043   0.901   0.883   0.868   0.854   0.972   0.959   1.014   0.977   1.031   1.089   1.083   0.979   0.922   0.906   0.913   0.841   0.888   0.936   0.948   0.827   0.922   0.837   0.955   1.058   1.064   1.060   1.115   1.013   0.977   1.045   1.025   1.058   0.973
     1.00    0.974   0.981   0.983   1.024   0.958   0.989   0.998   1.030   0.932   0.906   0.942   0.956   0.992   0.999   0.973   1.007   1.015   1.050   1.044   1.027   0.999   0.973   1.022   0.763   0.880   0.940   1.020   0.995   0.918   0.889   0.909   0.969   0.987   1.006   0.960   0.944   0.995   0.919   0.984   1.021   1.008

   Mean standard deviation across all grid points:
      u component:    0.987 m/s
      v component:    0.949 m/s
      w component:    0.964 m/s


U-component (X) statistics from the interpolated hub point:

   Mean =  10.0066 m/s
   TI   =   9.9237 %


Processing complete.  11.125 CPU seconds used.
