
This summary file was generated by TurbSim (from OpenFAST-v3.4.1) on 25-Nov-2024 at 22:19:02.


Runtime Options:

      2026  Random seed #1
         0  Random seed #2
         F  Output binary HH turbulence parameters?
         F  Output formatted turbulence parameters?
         F  Output AeroDyn HH files?
         T  Output AeroDyn FF files?
         F  Output BLADED FF files?
         F  Output tower data?
         F  Output HAWC FF files?
         F  Output formatted FF files?
         T  Output coherent turbulence time step file?
 0 -  NONE  IEC turbulence models scaled to exact specified standard deviation


Turbine/Model Specifications:

        31  Vertical grid-point matrix dimension
        41  Horizontal grid-point matrix dimension
     0.100  Time step [seconds]
   200.000  Analysis time [seconds]
   200.000  Usable output time [seconds]
   151.000  Hub height [m]
   300.000  Grid height [m]
   600.000  Grid width [m]
     0.000  Vertical flow angle [degrees]
     0.000  Horizontal flow angle [degrees]


Meteorological Boundary Conditions:

    IECVKM  IEC von Karman spectral model
         1  IEC standard: IEC 61400-1 Ed. 2: 1999
    10.000  Percent turbulence intensity, IEC 61400-1 Ed. 2: 1999
       NTM  IEC Normal Turbulence Model
       N/A  IEC Extreme Turbulence Model (ETM) "c" parameter [m/s]
       PL   Wind profile type
   150.000  Reference height [m]
    10.000  Reference wind speed [m/s]
       N/A  Jet height [m]
     0.100  Power law exponent
     0.030  Surface roughness length [m]


Non-IEC Meteorological Boundary Conditions:

       N/A  Site latitude [degrees]
       N/A  Gradient Richardson number
       N/A  Friction or shear velocity [m/s]
       N/A  Mixing layer depth [m]
       N/A  Mean hub u'w' Reynolds stress
       N/A  Mean hub u'v' Reynolds stress
       N/A  Mean hub v'w' Reynolds stress


Spatial Coherence Models:

       IEC  u-component coherence model
       IEC  v-component coherence model
       IEC  w-component coherence model
(   12.000, 0.659E-03)  u-component coherence parameters
(   12.000, 0.659E-03)  v-component coherence parameters
(   12.000, 0.659E-03)  w-component coherence parameters
       N/A  Coherence exponent


You have requested that the following file(s) be generated:

   ./TurbulentWind_20WT/FOWTs/Wind\InflowWind_High_WT2.bts (AeroDyn/TurbSim full-field wind file)


Turbulence Simulation Scaling Parameter Summary:

   Turbulence model used                            =  IEC von Karman
   Turbulence characteristic                        =  User-specified
   IEC standard                                     =  IEC 61400-1 Ed. 2: 1999
   Mean wind speed at hub height                    =   10.007 m/s
   Characteristic value of standard deviation       =    1.001 m/s
   Turbulence scale                                 =   21.000 m
   Isotropic integral scale                         =   73.500 m
   Characteristic value of hub turbulence intensity =   10.000%
   Gradient Richardson number                       =    0.000

   Wind profile type                                =  Power law
   Power law exponent                               =    0.100
   Mean shear across rotor disk                     =    0.016 (m/s)/m
   Assumed rotor diameter                           =  300.000 m
   Surface roughness length                         =    0.030 m

   Nyquist frequency of turbulent wind field        =    5.000 Hz

   Number of time steps in the FFT                  =     2600
   Number of time steps output                      =     2600
   Number of points simulated                       =     1271


Mean Flow Angles:

   Vertical   =   0.0 degrees
   Horizontal =   0.0 degrees

Mean Wind Speed Profile:

   Height    Wind Speed   Horizontal Angle  Vertical Angle  U-comp (X)   V-comp (Y)   W-comp (Z)
     (m)        (m/s)         (degrees)       (degrees)       (m/s)        (m/s)        (m/s)   
   ------    ----------   ----------------  --------------  ----------   ----------   ----------
    301.0       10.72            0.00            0.00         10.72         0.00         0.00
    291.0       10.69            0.00            0.00         10.69         0.00         0.00
    281.0       10.65            0.00            0.00         10.65         0.00         0.00
    271.0       10.61            0.00            0.00         10.61         0.00         0.00
    261.0       10.57            0.00            0.00         10.57         0.00         0.00
    251.0       10.53            0.00            0.00         10.53         0.00         0.00
    241.0       10.49            0.00            0.00         10.49         0.00         0.00
    231.0       10.44            0.00            0.00         10.44         0.00         0.00
    221.0       10.40            0.00            0.00         10.40         0.00         0.00
    211.0       10.35            0.00            0.00         10.35         0.00         0.00
    201.0       10.30            0.00            0.00         10.30         0.00         0.00
    191.0       10.24            0.00            0.00         10.24         0.00         0.00
    181.0       10.19            0.00            0.00         10.19         0.00         0.00
    171.0       10.13            0.00            0.00         10.13         0.00         0.00
    161.0       10.07            0.00            0.00         10.07         0.00         0.00
    151.0       10.01            0.00            0.00         10.01         0.00         0.00
    141.0        9.94            0.00            0.00          9.94         0.00         0.00
    131.0        9.87            0.00            0.00          9.87         0.00         0.00
    121.0        9.79            0.00            0.00          9.79         0.00         0.00
    111.0        9.70            0.00            0.00          9.70         0.00         0.00
    101.0        9.61            0.00            0.00          9.61         0.00         0.00
     91.0        9.51            0.00            0.00          9.51         0.00         0.00
     81.0        9.40            0.00            0.00          9.40         0.00         0.00
     71.0        9.28            0.00            0.00          9.28         0.00         0.00
     61.0        9.14            0.00            0.00          9.14         0.00         0.00
     51.0        8.98            0.00            0.00          8.98         0.00         0.00
     41.0        8.78            0.00            0.00          8.78         0.00         0.00
     31.0        8.54            0.00            0.00          8.54         0.00         0.00
     21.0        8.22            0.00            0.00          8.22         0.00         0.00
     11.0        7.70            0.00            0.00          7.70         0.00         0.00
      1.0        6.06            0.00            0.00          6.06         0.00         0.00


Harvested Random Seeds after Generation of the Random Numbers:

    915725236 Harvested seed # 1
   1971657505 Harvested seed # 2


Hub-Height Simulated Turbulence Statistical Summary:

   Type of Wind        Min (m/s)   Mean (m/s)    Max (m/s)  Sigma (m/s)       TI (%)
   ----------------    ---------   ----------    ---------  -----------       ------
   Longitudinal (u)         6.66        10.01        12.52        0.947        9.459
   Lateral (v)             -3.06        -0.00         2.78        0.974        9.732
   Vertical (w)            -2.82        -0.00         3.48        1.040       10.390
   U component              6.66        10.01        12.52        0.947        9.459
   V component             -3.06        -0.00         2.78        0.974        9.732
   W component             -2.82        -0.00         3.48        1.040       10.390
   Horizontal (U&V)         6.70        10.05        12.55        0.938        9.332
   Total                    6.71        10.11        12.55        0.941        9.314

                       Min Reynolds     Mean Reynolds    Max Reynolds    Correlation
   Product             Stress (m/s)^2   Stress (m/s)^2   Stress (m/s)^2  Coefficient
   ----------------    --------------   --------------   --------------  -----------
   u'w'                     -4.753             0.017             3.962         0.017
   u'v'                     -3.619             0.089             4.346         0.097
   v'w'                     -4.666             0.084             5.731         0.083


   Friction Velocity (Ustar)  =      0.130 m/s
   Maximum Instantaneous TKE  =      6.350 (m/s)^2
   Maximum Instantaneous CTKE =      3.565 (m/s)^2


Grid Point Variance Summary:

   Y-coord -300.00 -285.00 -270.00 -255.00 -240.00 -225.00 -210.00 -195.00 -180.00 -165.00 -150.00 -135.00 -120.00 -105.00  -90.00  -75.00  -60.00  -45.00  -30.00  -15.00    0.00   15.00   30.00   45.00   60.00   75.00   90.00  105.00  120.00  135.00  150.00  165.00  180.00  195.00  210.00  225.00  240.00  255.00  270.00  285.00  300.00

   Height   Standard deviation at grid points for the u component:
   301.00    0.866   0.935   0.820   0.989   1.105   1.023   0.997   0.936   0.924   0.878   0.917   0.871   1.023   0.941   0.871   0.980   0.985   1.077   0.972   1.001   1.043   1.128   1.154   1.101   1.094   0.978   1.073   1.175   1.093   1.129   1.234   1.113   1.056   1.010   1.002   1.071   0.953   0.932   0.983   0.953   1.024
   291.00    0.997   0.997   0.958   0.942   1.007   1.039   1.088   1.020   0.879   0.985   0.931   0.879   0.945   0.818   0.895   0.961   1.107   1.010   1.137   1.108   1.061   1.090   1.157   0.929   1.014   1.040   1.079   1.067   1.105   1.085   1.120   1.121   1.062   0.991   0.977   1.047   1.052   0.937   1.008   0.944   0.946
   281.00    1.005   0.959   0.954   0.952   0.978   0.987   1.063   0.969   0.949   0.884   0.929   0.943   0.940   0.904   0.879   0.956   0.999   1.074   1.076   1.012   1.132   1.033   1.089   0.873   1.041   1.121   1.047   1.018   1.023   1.088   1.105   1.026   1.022   0.904   1.070   0.995   1.126   1.096   1.073   0.929   0.891
   271.00    0.976   0.951   0.949   0.950   0.927   1.015   1.012   0.978   0.986   0.884   0.928   1.029   0.958   0.946   0.878   0.947   1.034   1.005   1.025   0.989   1.059   0.997   0.896   0.955   1.017   1.138   1.050   0.954   0.936   1.025   1.127   1.038   1.092   0.875   1.083   0.991   1.201   1.089   1.053   0.918   0.977
   261.00    0.959   0.985   0.938   0.885   0.986   1.007   0.910   1.095   0.975   1.020   0.915   1.023   1.119   1.096   1.049   0.969   1.040   0.896   1.021   1.006   0.914   1.000   0.986   1.006   0.989   1.152   1.023   0.980   0.974   1.033   0.999   1.049   1.058   0.915   0.942   0.947   1.185   1.134   1.069   0.814   0.972
   251.00    0.993   0.924   0.881   0.782   0.877   0.874   1.038   1.081   1.097   1.094   0.876   1.036   1.231   1.221   1.096   1.057   1.020   1.045   0.936   0.913   0.896   0.912   1.034   1.160   1.076   1.037   0.928   1.097   1.045   1.100   1.079   0.987   0.954   0.925   0.888   1.065   1.197   1.130   1.019   0.881   0.958
   241.00    0.988   0.878   0.878   0.886   0.912   0.915   1.048   1.164   1.106   1.163   1.065   1.096   1.125   1.269   1.171   1.198   1.020   0.995   0.922   0.909   0.902   1.014   0.951   1.105   1.256   1.135   0.899   1.068   1.150   1.219   0.905   0.979   0.899   0.830   0.957   1.053   1.143   1.110   1.038   0.948   0.992
   231.00    0.931   0.936   0.781   0.771   0.894   1.032   1.016   1.154   1.132   1.112   1.116   1.049   1.127   1.267   1.213   1.097   0.966   0.931   0.895   0.883   0.847   0.999   1.075   1.175   1.194   1.184   1.001   1.000   1.230   1.091   0.968   0.920   0.932   0.816   0.941   0.939   0.965   1.061   0.992   1.063   1.075
   221.00    0.828   0.780   0.740   0.815   0.839   1.056   1.045   1.093   1.130   1.106   1.056   1.096   1.217   1.336   1.184   1.135   0.910   0.964   0.844   0.904   0.945   1.014   0.935   1.054   1.108   1.112   1.022   1.106   1.212   1.215   1.024   0.943   0.990   0.804   0.954   1.020   0.987   1.046   1.022   1.041   1.033
   211.00    0.901   0.821   0.750   0.876   0.872   0.988   1.099   1.000   1.068   1.110   1.007   1.095   1.276   1.362   1.196   1.101   1.002   0.798   0.907   0.839   0.917   0.979   1.054   0.989   1.041   1.121   1.055   1.216   1.182   1.123   1.144   0.971   0.810   0.934   0.920   0.967   1.004   0.967   0.885   0.969   1.037
   201.00    0.850   0.858   0.813   0.915   0.910   0.962   1.010   0.957   0.981   0.929   1.147   1.094   1.322   1.433   1.175   1.225   0.919   0.970   0.924   0.962   0.980   1.100   1.070   0.901   1.060   1.125   1.199   1.326   1.319   1.143   1.135   1.079   1.000   0.973   1.003   1.027   0.985   0.961   0.912   0.865   0.956
   191.00    0.804   0.755   0.724   0.965   1.011   0.948   1.014   0.898   0.950   0.979   1.199   1.164   1.230   1.296   1.243   1.274   1.006   0.890   0.885   0.932   1.011   1.091   1.001   1.042   1.122   1.152   1.071   1.196   1.207   1.188   1.185   0.925   1.062   0.908   1.029   1.000   0.969   0.961   0.923   0.934   0.937
   181.00    0.900   0.829   0.941   0.981   1.027   0.846   1.002   0.942   0.950   1.030   1.138   1.113   1.177   1.249   1.147   1.148   0.961   0.824   0.765   0.838   0.997   0.963   1.026   1.040   1.092   1.102   1.073   1.153   1.222   1.146   1.123   1.017   1.030   1.049   0.952   1.068   0.886   0.937   0.848   0.930   0.895
   171.00    0.936   0.910   0.877   0.921   0.987   1.032   1.011   0.988   1.013   1.131   1.074   1.119   1.067   1.011   1.164   1.012   0.982   0.907   0.774   0.753   0.911   0.810   0.906   0.992   1.025   1.043   1.097   1.141   1.123   1.118   1.106   1.032   0.949   1.009   0.915   0.907   0.887   0.838   0.885   0.952   1.031
   161.00    0.832   0.961   1.017   0.853   0.944   1.024   0.996   0.977   1.075   1.115   1.031   1.129   1.103   0.959   1.000   0.858   0.908   0.934   0.840   0.833   0.893   0.781   0.877   0.930   0.959   0.960   0.993   1.038   1.135   0.992   0.964   0.946   1.040   0.882   0.881   0.920   0.942   0.837   0.919   0.909   1.012
   151.00    0.849   0.958   0.928   0.821   0.941   0.912   0.877   0.947   1.049   1.008   1.025   1.091   1.091   0.937   0.997   0.921   0.938   0.928   1.019   0.942   0.947   0.882   0.891   1.015   0.859   0.911   0.929   1.020   1.055   0.982   1.036   0.894   0.958   0.915   0.925   1.055   1.008   0.884   0.987   0.838   0.881
   141.00    0.857   0.804   0.926   0.918   0.934   0.956   0.944   0.876   1.021   1.059   1.098   0.988   1.017   0.857   0.926   0.888   1.009   0.933   0.932   0.994   0.996   0.874   0.893   0.938   0.954   0.956   0.968   1.130   1.027   1.013   1.042   0.996   0.911   0.927   0.984   1.104   1.053   0.950   0.927   0.944   0.844
   131.00    0.763   0.780   0.936   0.898   0.986   0.921   0.881   0.940   1.068   0.944   1.021   0.917   0.929   0.761   0.914   0.947   1.074   0.917   0.952   0.911   0.838   0.954   0.886   1.012   0.967   0.914   1.118   1.079   0.956   1.008   1.085   1.029   0.917   0.959   1.166   1.156   1.125   1.114   1.039   0.890   0.824
   121.00    0.804   0.832   0.981   1.005   0.894   0.941   1.001   0.998   1.069   0.937   0.991   1.054   0.853   0.930   0.912   1.001   1.036   0.938   0.944   0.945   1.010   0.988   0.959   1.012   0.997   0.998   1.092   1.111   1.070   0.889   1.001   1.002   0.978   1.030   1.233   1.160   1.191   1.114   0.911   0.833   0.807
   111.00    0.811   0.873   0.967   0.959   0.915   0.901   1.028   0.980   1.032   0.991   1.009   1.001   0.955   0.832   0.835   0.990   0.935   1.035   0.918   0.953   0.961   0.992   1.086   1.142   1.115   0.947   1.055   1.047   1.122   0.896   0.877   0.982   1.076   1.062   1.135   1.108   1.117   1.151   0.812   0.817   0.929
   101.00    0.803   0.840   0.922   0.845   0.908   0.887   0.935   0.949   1.022   0.960   0.878   0.919   0.961   0.822   0.820   0.889   0.861   1.008   0.941   0.986   0.897   0.992   1.108   1.167   1.091   0.969   0.973   1.136   1.081   1.043   0.829   0.959   0.897   1.038   1.039   0.930   0.992   1.032   0.873   0.848   0.978
    91.00    0.844   0.840   0.927   0.842   0.887   1.010   0.999   0.963   0.953   0.897   0.804   0.861   0.854   0.771   0.744   0.773   0.798   0.924   0.858   0.970   1.037   0.959   1.107   1.092   1.120   1.023   0.853   1.109   1.103   0.929   0.911   0.945   0.927   1.095   1.055   1.024   0.955   1.005   0.942   0.967   0.977
    81.00    0.909   0.830   0.848   0.978   0.919   0.961   0.985   0.957   0.851   0.949   0.743   0.859   0.873   0.839   0.756   0.816   0.831   0.872   0.965   0.922   0.957   0.993   1.154   1.036   1.074   0.979   0.904   1.150   1.039   0.906   0.874   0.912   0.924   1.040   1.062   0.935   0.912   0.903   0.904   0.920   0.947
    71.00    0.920   0.838   0.944   1.049   0.961   0.964   1.004   1.012   0.894   0.948   0.843   0.831   0.920   0.897   0.888   0.963   0.866   0.972   0.916   0.946   0.930   1.075   1.206   1.031   1.053   1.010   0.990   1.044   1.101   1.024   0.965   0.852   0.901   0.961   1.009   0.875   0.886   1.010   0.958   0.997   0.940
    61.00    0.913   0.806   0.893   0.954   0.884   0.850   0.964   0.901   0.796   0.839   0.939   0.950   1.031   0.999   1.058   1.011   0.847   0.984   0.896   0.918   0.920   1.062   1.162   1.033   0.973   1.058   0.976   0.984   1.076   1.009   0.994   0.950   1.015   0.999   0.993   0.992   0.933   0.999   0.950   0.971   1.062
    51.00    0.848   0.863   0.909   1.011   0.936   0.786   0.977   0.928   0.875   0.873   0.926   0.975   1.112   1.007   1.039   0.980   0.926   0.928   1.039   0.961   1.004   0.997   0.964   1.067   0.987   0.925   0.910   0.984   1.063   0.978   0.948   0.949   1.060   0.986   0.973   0.920   0.968   0.901   0.953   0.923   1.067
    41.00    0.933   0.904   0.945   0.991   0.937   0.884   0.946   0.867   0.855   0.928   0.945   1.034   1.025   1.025   1.069   0.877   0.902   0.973   0.966   1.024   1.050   1.041   0.887   0.955   0.994   1.026   0.987   1.015   1.045   1.069   0.976   0.906   1.091   1.003   0.947   0.879   0.869   0.993   0.893   0.770   1.008
    31.00    0.905   1.030   0.970   1.036   1.040   1.041   0.966   0.890   0.930   0.916   0.918   0.889   0.953   0.999   1.013   0.967   0.872   1.031   1.030   0.985   0.912   0.938   0.876   0.914   0.869   0.982   0.846   0.889   0.925   0.893   0.941   0.973   1.093   0.901   0.857   0.885   0.892   0.894   0.907   0.852   1.003
    21.00    0.992   0.940   0.977   1.057   1.164   1.000   1.045   1.144   0.969   0.869   0.899   0.870   0.845   1.009   1.077   1.062   0.880   0.925   0.927   0.917   0.872   0.829   0.853   0.882   0.836   0.801   0.872   1.021   0.960   0.862   0.960   0.948   1.028   0.984   1.011   0.930   0.916   0.878   0.906   0.877   1.020
    11.00    1.046   0.981   1.018   1.199   1.256   1.145   1.120   1.073   0.975   0.817   0.807   0.951   0.842   1.036   1.104   0.859   0.997   0.963   1.017   0.854   0.869   0.840   0.921   0.904   0.755   0.792   0.884   0.936   1.021   1.065   0.989   1.058   1.000   1.083   0.948   0.909   0.944   0.802   0.909   0.999   0.971
     1.00    0.963   0.972   1.026   1.167   1.298   1.171   1.148   1.003   0.993   0.875   0.959   1.027   0.990   1.007   1.075   0.800   0.891   1.030   1.016   1.005   0.862   0.911   0.927   0.841   0.786   0.772   0.835   0.951   0.924   1.095   1.047   1.115   0.886   1.048   1.003   0.945   1.034   0.886   0.838   0.954   0.936

   Height   Standard deviation at grid points for the v component:
   301.00    0.915   0.948   0.994   0.989   0.897   0.910   0.988   0.983   1.025   0.917   0.907   0.871   0.864   0.882   1.019   0.943   0.918   0.963   0.962   0.987   0.943   1.035   0.889   1.019   0.939   0.964   0.999   0.922   1.009   0.972   0.983   0.987   0.980   0.902   0.831   0.928   0.978   0.974   0.940   0.885   0.948
   291.00    0.938   1.069   1.059   0.976   0.881   0.921   1.012   1.022   1.090   0.954   0.916   0.914   0.863   0.886   0.935   0.892   0.976   0.972   1.022   0.857   0.996   1.007   0.949   1.100   0.936   0.881   0.973   1.003   1.006   0.862   0.986   0.887   0.882   0.863   0.896   0.851   1.019   0.910   0.898   0.881   0.919
   281.00    0.873   1.035   0.996   1.006   0.855   0.912   1.077   1.079   1.108   1.001   0.964   0.851   0.935   0.908   0.835   0.955   0.992   0.962   0.975   1.173   0.903   0.930   1.100   1.119   0.971   0.887   1.026   0.894   0.974   0.932   0.886   0.895   0.888   0.962   0.930   0.916   1.011   0.943   0.955   0.915   0.876
   271.00    0.937   0.969   1.069   1.062   0.816   0.923   0.919   1.034   0.970   0.983   0.921   0.939   0.925   0.956   0.846   0.950   0.960   0.863   1.036   1.130   0.927   1.025   1.010   1.021   0.936   0.958   0.996   0.994   1.016   0.998   0.889   0.866   0.841   0.877   0.932   0.927   0.989   0.923   0.994   1.003   0.949
   261.00    1.067   0.920   1.046   1.098   0.894   0.883   0.896   1.008   0.887   0.955   0.879   0.911   0.932   0.861   0.928   0.917   0.901   1.039   1.103   1.125   1.005   0.874   0.982   0.950   0.987   0.951   0.988   0.994   0.992   1.066   1.075   0.804   0.779   0.891   0.903   0.948   0.975   1.035   1.115   1.086   0.892
   251.00    0.977   0.985   1.065   1.043   0.979   0.859   0.892   0.931   0.898   0.994   1.014   0.926   0.860   0.835   0.902   1.069   0.963   1.046   1.060   1.043   1.037   0.965   0.983   0.999   0.980   1.025   1.096   1.038   1.011   0.982   1.038   0.891   0.848   0.939   0.870   0.928   0.947   1.114   1.069   0.962   0.947
   241.00    0.961   1.087   1.055   1.119   1.061   0.985   0.865   0.911   0.987   1.024   0.980   0.915   0.947   0.902   0.984   1.127   1.017   0.966   1.064   1.071   0.951   0.908   0.935   1.028   1.045   1.171   1.088   0.959   0.974   0.903   0.991   0.869   0.888   0.871   0.983   0.955   0.870   0.996   1.049   0.820   0.829
   231.00    0.966   0.973   1.021   1.081   1.022   0.915   0.775   0.888   0.980   0.953   0.969   0.931   0.866   0.969   1.026   1.035   0.992   1.026   1.086   1.053   0.886   0.867   0.948   1.022   1.033   1.050   1.053   0.991   0.929   1.010   0.986   0.875   0.934   1.106   1.002   0.850   0.899   0.987   0.978   0.907   1.006
   221.00    0.941   0.978   0.947   1.017   0.896   0.930   0.879   0.923   0.989   0.956   0.897   0.870   0.835   1.040   1.008   1.045   1.147   1.080   1.072   0.929   0.859   0.941   0.948   0.953   1.025   0.990   0.996   0.964   0.825   0.938   0.907   0.937   0.874   1.069   0.993   0.925   0.831   0.906   0.894   0.835   1.008
   211.00    0.889   0.989   0.977   1.012   1.020   0.944   1.012   0.915   0.913   0.971   0.908   0.894   0.952   0.929   1.022   1.006   1.129   0.968   0.973   0.909   0.853   0.905   0.906   0.967   1.015   0.962   0.927   1.004   0.938   0.923   0.818   0.945   1.036   1.164   1.100   0.930   0.904   0.829   0.886   1.028   1.038
   201.00    0.967   0.963   0.990   1.059   1.076   0.934   0.957   0.914   0.983   0.934   0.851   0.844   0.891   0.921   0.885   0.996   0.986   1.051   1.013   0.883   0.912   0.919   0.924   0.985   0.973   1.070   0.963   1.048   0.987   0.967   0.902   0.903   0.894   1.046   1.098   0.957   0.949   0.816   1.008   1.055   1.127
   191.00    0.990   1.019   1.072   1.005   1.130   0.988   0.891   0.861   0.921   0.846   0.892   0.923   0.866   0.917   0.878   0.959   0.927   1.035   0.913   0.914   0.919   0.864   0.946   0.858   1.030   1.036   1.055   1.097   1.007   0.927   0.893   0.941   1.039   1.109   1.069   0.954   0.959   0.933   1.094   1.064   1.120
   181.00    0.890   0.969   1.021   1.004   1.063   0.999   0.935   0.971   0.907   0.918   0.865   0.847   0.857   1.007   1.043   0.988   0.869   1.013   0.992   1.004   0.905   0.885   0.931   0.876   0.964   1.028   0.970   0.987   0.967   0.932   0.879   0.895   1.081   0.970   0.933   0.939   0.974   0.977   1.001   1.026   1.041
   171.00    0.975   0.917   1.009   1.075   0.973   0.947   0.971   0.985   0.902   0.935   0.859   0.824   0.821   0.960   0.974   1.000   0.980   0.947   0.972   0.990   0.880   0.835   0.816   0.822   0.909   0.896   0.912   0.923   0.934   0.922   0.936   0.893   1.008   1.033   1.022   0.872   0.991   0.936   0.920   0.944   0.985
   161.00    0.943   1.037   0.956   0.956   0.856   0.886   0.886   0.923   0.888   0.950   0.876   0.861   0.834   0.926   1.020   0.941   0.991   0.990   1.006   1.014   0.983   0.910   0.873   0.918   0.964   0.842   0.921   0.847   0.917   0.903   0.932   0.917   0.980   0.979   0.974   0.910   0.994   0.953   0.961   1.013   0.993
   151.00    0.993   0.972   0.977   0.926   0.893   0.806   0.837   0.918   1.024   1.008   0.978   0.901   0.888   0.983   1.038   0.885   0.935   0.840   0.920   1.031   0.974   1.004   0.881   1.037   0.986   0.962   0.875   0.826   0.904   0.907   0.900   0.973   0.972   1.012   1.017   0.900   0.953   0.893   0.963   0.943   1.059
   141.00    0.972   1.005   0.917   0.943   0.948   0.854   0.858   1.017   1.111   0.987   0.945   0.872   0.906   0.910   0.987   0.997   0.938   0.828   0.941   0.965   0.971   1.007   0.998   1.040   1.028   1.051   0.886   0.847   0.919   0.878   0.975   1.003   0.945   0.965   1.010   0.993   0.952   0.881   0.802   0.909   0.942
   131.00    0.964   0.956   0.940   0.963   0.974   0.831   0.923   0.918   0.973   1.050   0.871   0.805   0.975   1.014   0.916   0.952   0.917   0.853   0.831   0.989   0.992   1.081   1.012   0.952   0.935   0.983   0.947   0.880   0.841   0.920   1.018   1.037   0.884   0.888   0.989   1.079   0.926   0.857   0.819   0.929   0.928
   121.00    0.901   0.917   1.085   0.869   0.907   0.887   0.917   0.931   0.876   0.999   0.846   0.861   1.012   1.167   1.007   0.909   0.906   0.934   0.968   0.974   0.943   1.026   0.953   0.949   0.906   1.019   1.010   0.943   0.878   0.872   1.015   0.946   1.024   0.929   0.988   1.013   0.927   0.981   0.945   1.003   0.983
   111.00    0.984   0.888   0.978   0.903   0.947   0.858   0.899   0.853   0.920   0.969   1.022   0.872   0.960   1.064   0.978   1.020   0.981   0.984   0.932   0.955   1.065   1.048   1.013   0.925   0.995   1.001   1.036   0.966   0.902   0.922   0.914   0.875   1.007   0.987   0.937   0.911   0.899   0.941   0.969   1.019   0.976
   101.00    1.023   1.011   0.949   0.873   0.914   0.862   0.867   0.856   0.920   1.053   1.094   0.891   1.106   1.087   1.075   1.075   1.064   1.018   0.930   0.988   0.955   0.985   0.995   0.863   0.862   0.914   0.968   0.999   0.985   0.935   0.983   0.954   0.962   0.918   0.855   0.888   0.822   0.869   0.906   0.988   0.981
    91.00    1.018   1.039   0.924   0.852   0.886   0.884   0.979   0.978   0.954   1.085   1.048   0.910   1.160   1.145   1.038   1.014   1.070   1.003   0.973   1.010   0.956   0.943   0.882   0.854   0.931   0.944   0.903   1.029   0.970   1.021   0.905   0.919   0.981   0.880   0.881   0.900   0.819   0.837   0.915   0.926   1.012
    81.00    1.017   0.974   0.832   0.848   0.832   0.883   0.881   1.035   1.069   1.131   0.969   0.890   1.068   1.102   0.874   1.059   0.967   0.960   0.906   0.888   0.959   1.012   0.969   0.898   0.955   0.909   0.908   1.038   0.994   1.043   1.068   1.059   0.993   0.916   0.811   0.863   0.850   0.769   0.822   0.842   0.904
    71.00    0.947   0.934   0.938   0.960   0.926   0.832   0.850   1.024   1.053   1.054   0.953   1.014   1.139   1.039   1.016   1.070   0.877   0.839   0.873   0.910   0.930   0.985   0.880   0.882   0.921   0.969   1.006   1.033   1.049   1.161   1.124   1.027   0.918   0.890   0.866   0.858   0.937   0.825   0.860   0.876   0.852
    61.00    0.927   0.879   0.868   0.916   0.863   0.906   0.859   0.934   1.013   0.988   0.994   1.039   1.075   1.008   0.989   0.966   0.896   0.729   0.800   0.916   0.929   0.903   0.851   0.899   0.905   0.955   1.018   1.069   1.088   1.157   1.104   0.980   1.046   0.865   0.836   0.918   0.977   0.970   0.947   0.954   0.808
    51.00    0.935   0.890   1.041   0.880   0.916   0.954   0.893   0.930   0.980   0.925   0.950   0.966   1.043   1.031   0.934   0.892   0.844   0.880   0.876   0.889   0.916   0.941   0.893   0.921   0.976   0.892   1.033   1.020   1.064   1.149   1.038   0.954   0.984   0.904   0.894   0.943   0.991   0.934   0.930   0.923   0.798
    41.00    0.931   1.024   1.003   0.928   0.923   0.948   0.890   1.014   1.036   0.886   0.891   0.994   1.012   1.051   0.972   0.882   0.844   0.911   0.990   0.952   0.933   0.852   0.916   0.825   0.887   0.930   1.028   0.952   1.103   1.202   1.048   1.136   0.977   0.934   0.814   0.892   0.967   0.965   0.855   0.877   0.938
    31.00    0.884   0.923   1.119   0.987   0.877   0.917   0.961   0.965   1.012   0.985   0.857   0.996   0.978   1.035   0.979   0.900   0.968   0.973   1.010   0.929   0.968   0.903   0.850   0.834   0.907   0.860   0.952   0.944   0.954   1.115   1.185   1.088   1.005   1.069   0.896   0.919   0.970   0.904   0.903   0.979   0.976
    21.00    0.860   0.991   1.055   1.065   0.965   0.894   0.911   1.016   0.972   1.010   0.913   0.884   1.062   0.970   0.878   0.893   0.870   0.921   1.049   0.966   1.029   0.949   0.862   0.899   0.888   0.886   0.847   0.937   0.965   1.107   1.176   1.086   1.036   1.057   1.025   0.920   0.914   0.916   0.841   0.928   0.912
    11.00    0.889   0.965   1.044   1.052   0.993   0.885   0.885   0.984   0.936   0.983   0.914   0.884   1.009   0.955   0.954   0.898   0.943   0.846   0.996   1.077   1.006   1.003   0.916   0.846   0.813   0.838   0.907   0.927   0.901   1.157   1.174   1.069   1.062   0.984   0.895   0.896   0.918   0.897   0.939   0.982   0.975
     1.00    0.974   0.965   0.974   1.079   1.089   0.984   0.949   0.893   0.961   0.948   0.859   0.904   0.970   0.937   0.953   0.945   1.048   0.964   1.026   1.085   1.071   1.035   0.923   0.871   0.797   0.913   0.873   0.897   0.954   1.005   1.089   1.072   1.027   0.968   0.948   0.903   1.009   0.924   0.850   0.947   1.039

   Height   Standard deviation at grid points for the w component:
   301.00    0.833   0.882   0.908   0.948   0.831   0.864   0.819   0.892   0.980   0.953   0.998   0.849   0.880   0.892   0.913   0.866   0.928   0.935   1.013   1.051   0.992   1.009   0.954   1.017   0.936   0.905   1.018   1.051   1.120   1.123   1.070   1.062   1.008   0.969   0.959   0.960   0.999   1.011   0.982   0.903   0.890
   291.00    0.806   1.010   0.972   0.995   0.899   0.817   0.879   0.965   0.909   0.951   0.957   0.873   0.867   0.838   0.919   0.934   1.012   0.953   1.009   1.071   0.942   0.985   1.051   1.107   0.890   1.068   1.076   1.043   1.056   1.029   1.053   1.042   0.967   0.943   1.011   1.038   1.054   1.026   1.129   0.947   0.868
   281.00    0.873   0.948   1.024   1.087   0.950   0.900   0.956   0.906   0.910   0.955   0.906   0.950   0.878   0.941   1.029   0.904   0.892   0.970   1.010   0.957   0.903   0.953   1.128   1.044   0.995   1.045   1.013   1.058   1.022   1.066   1.060   1.018   0.966   1.009   1.131   0.991   1.071   1.070   1.033   0.933   0.929
   271.00    0.984   0.968   0.984   1.020   0.869   0.857   0.895   0.828   0.951   0.962   0.954   0.971   0.997   0.932   1.007   0.959   1.041   0.933   0.958   0.912   0.948   0.978   1.004   0.988   0.982   0.973   0.990   0.988   1.016   1.084   1.137   1.069   1.077   1.029   1.048   1.017   1.065   0.992   0.986   0.929   0.939
   261.00    0.901   0.975   0.940   0.900   0.908   0.824   0.856   0.971   0.957   0.926   0.955   0.979   0.880   0.918   0.828   0.928   0.950   1.018   0.914   0.951   0.947   1.029   0.927   0.973   0.989   0.948   0.914   1.025   1.041   1.046   1.089   1.035   1.099   1.121   1.047   0.927   1.115   1.088   1.005   0.877   0.878
   251.00    0.880   0.873   0.939   0.901   0.872   0.860   0.899   1.040   0.959   0.954   0.955   0.938   0.911   0.979   0.929   0.867   0.981   0.928   0.965   1.022   0.974   1.022   0.996   0.965   0.922   1.017   0.936   1.057   0.966   1.029   1.171   1.065   1.100   1.145   1.070   0.901   1.074   1.137   1.005   0.903   0.867
   241.00    0.827   0.936   0.884   0.866   0.855   0.929   0.863   1.015   0.964   0.844   0.927   1.000   0.970   0.917   0.902   0.815   1.011   0.973   1.071   1.122   0.984   1.004   0.930   0.892   0.983   1.009   0.955   1.122   1.021   1.042   1.191   1.150   1.018   1.116   1.150   1.135   1.132   1.130   1.085   0.844   0.862
   231.00    1.065   0.959   0.841   0.825   0.791   0.928   0.997   0.968   1.017   0.950   1.102   0.954   0.960   0.954   0.840   0.887   0.978   0.962   1.027   1.012   1.033   1.007   1.058   1.045   0.994   0.923   0.896   1.022   1.018   1.057   1.157   1.078   0.998   0.993   1.073   1.175   1.128   1.023   0.997   0.825   0.873
   221.00    1.033   0.922   0.845   0.823   0.868   0.990   1.014   0.968   0.974   0.962   1.063   1.013   0.974   0.938   0.872   0.885   0.974   0.998   1.002   1.042   1.127   0.974   0.997   1.020   0.931   0.917   0.870   0.975   1.111   1.041   1.043   0.986   1.000   0.963   1.073   1.145   1.075   1.058   0.979   0.828   0.879
   211.00    1.102   0.909   0.817   0.890   0.888   1.069   1.002   1.015   0.949   1.046   1.025   0.976   1.017   0.966   0.892   0.887   0.995   1.047   1.013   1.129   1.088   1.049   0.964   1.032   0.968   0.844   0.955   1.065   1.155   1.106   1.165   1.058   0.949   1.018   0.961   1.032   1.050   1.028   0.982   0.935   0.876
   201.00    1.031   1.007   0.889   0.950   0.924   0.947   0.993   1.058   0.999   1.032   1.111   1.054   0.938   0.954   0.937   0.988   1.014   1.022   1.064   1.107   1.095   1.082   0.963   1.000   0.962   0.951   0.947   1.098   1.183   1.077   1.079   1.021   0.907   0.999   1.027   0.965   1.004   1.020   1.026   0.893   0.891
   191.00    1.034   0.914   0.895   0.959   1.007   0.901   0.927   1.024   1.014   1.074   1.043   0.957   0.938   0.911   0.867   0.994   0.978   1.065   1.095   0.991   1.039   1.022   1.104   0.927   1.001   0.968   1.015   1.075   1.015   1.101   1.048   0.896   0.983   0.909   0.948   0.969   0.976   0.948   0.992   0.872   0.914
   181.00    0.948   0.899   0.878   0.964   0.911   0.902   0.943   0.966   1.120   1.058   1.076   0.915   0.877   0.907   0.957   0.957   0.986   0.994   1.061   1.062   0.946   0.965   1.052   0.999   1.077   1.021   0.968   1.078   0.923   1.094   1.197   0.871   1.016   1.030   0.916   0.858   0.889   0.954   1.029   0.933   0.914
   171.00    0.901   0.933   0.903   0.889   0.893   0.840   0.948   0.884   1.116   1.005   1.057   1.025   0.888   1.030   0.903   0.964   0.943   1.009   1.097   1.142   1.052   1.063   0.996   0.985   1.057   1.023   1.020   1.003   0.984   1.183   1.192   0.927   0.937   0.963   0.995   0.953   0.877   0.893   0.953   0.930   0.864
   161.00    0.948   0.947   0.872   0.883   0.901   0.874   0.906   0.931   1.130   1.072   1.125   1.005   0.983   1.062   0.858   0.910   0.962   1.039   1.085   1.074   1.002   1.072   0.999   0.999   1.086   1.123   0.985   1.004   0.926   1.136   1.111   1.019   0.971   0.955   0.965   0.978   0.966   0.886   1.039   0.940   0.875
   151.00    0.874   0.925   0.933   0.907   1.003   0.958   0.909   0.965   1.176   1.084   1.111   0.951   0.936   0.998   0.958   0.978   1.046   0.982   1.057   1.035   1.040   0.984   1.019   0.911   1.090   0.986   0.959   1.010   1.010   1.051   1.012   1.003   0.978   0.986   0.863   0.930   0.927   0.896   0.965   0.968   0.927
   141.00    0.964   0.946   0.942   0.849   1.074   1.016   0.928   1.008   1.082   1.137   1.044   0.962   0.918   0.978   1.015   0.870   1.020   1.016   1.025   1.041   0.960   0.909   0.972   0.945   0.990   0.988   1.016   1.069   1.029   1.095   0.934   0.987   0.988   0.972   1.033   1.041   0.872   0.893   0.900   0.971   0.973
   131.00    0.917   0.901   0.776   0.886   1.080   1.054   0.992   0.972   1.110   1.047   1.029   0.971   0.940   0.967   1.022   1.018   1.030   1.135   1.071   1.085   1.014   1.009   1.061   0.996   0.953   0.973   0.912   0.982   0.915   1.031   0.929   0.955   1.006   0.934   1.001   1.021   0.958   0.842   0.837   0.962   0.986
   121.00    0.868   0.832   0.769   0.958   1.014   0.989   1.017   0.930   0.989   1.071   1.101   1.061   0.914   0.892   0.913   1.025   1.043   1.050   1.004   0.973   0.862   0.968   1.042   0.869   0.877   0.934   0.937   0.907   0.914   0.941   0.970   0.920   0.899   0.945   0.903   1.013   0.990   0.863   0.859   0.885   0.924
   111.00    0.923   0.925   0.884   0.860   0.880   0.947   1.015   0.971   1.027   1.029   1.190   0.934   0.831   0.948   0.974   0.938   0.978   0.949   1.000   0.921   0.889   0.896   1.037   0.916   0.882   0.961   0.934   0.896   0.910   0.916   0.892   0.970   0.890   0.921   0.977   0.881   0.895   0.877   0.880   0.837   0.882
   101.00    0.888   0.876   0.821   0.905   0.914   0.906   0.999   0.996   1.036   1.019   1.127   1.047   0.933   0.922   0.924   0.989   0.937   0.982   1.027   0.997   1.024   0.966   1.049   0.847   0.879   0.969   0.886   0.929   0.968   0.896   0.907   0.936   1.003   0.954   0.912   0.899   0.854   0.784   0.837   0.830   0.796
    91.00    0.904   0.868   0.864   0.943   0.944   0.922   0.991   0.999   1.013   1.073   1.103   1.017   0.929   0.899   0.827   0.991   0.923   0.981   0.936   1.019   0.996   0.980   1.000   0.891   0.919   0.897   0.963   0.879   0.941   1.060   0.917   0.919   0.927   0.902   0.886   0.825   0.851   0.956   0.862   0.841   0.818
    81.00    0.907   0.896   0.920   0.906   0.919   0.896   0.930   0.955   0.988   0.999   1.152   0.965   0.919   0.978   0.852   0.896   0.940   0.962   0.980   0.997   0.955   0.901   0.968   1.029   0.914   0.814   0.935   0.989   0.998   1.139   0.930   0.899   0.944   0.939   0.884   0.831   0.871   0.831   0.829   0.806   0.777
    71.00    0.969   0.913   0.888   0.905   0.851   0.849   0.960   0.984   1.028   1.007   1.147   0.951   0.868   0.998   0.838   0.867   0.827   0.959   1.038   0.997   1.004   1.047   0.982   0.948   0.894   0.888   0.996   0.993   1.044   1.092   1.039   0.897   0.956   1.024   0.896   0.821   0.866   0.827   0.845   0.759   0.804
    61.00    0.888   0.948   0.950   0.957   0.958   0.917   0.970   0.923   0.956   0.925   0.993   1.022   0.909   0.915   0.860   0.886   0.844   0.898   1.027   0.987   1.080   1.002   1.059   0.988   1.022   0.907   0.934   1.059   0.963   1.002   0.935   1.014   0.896   0.963   0.928   0.889   0.973   0.847   0.885   0.886   0.817
    51.00    0.884   0.970   1.017   1.050   0.967   0.989   1.082   0.999   0.938   0.985   0.967   0.954   0.992   0.907   0.929   0.894   0.888   0.798   0.928   1.001   0.977   0.984   1.016   0.933   1.025   0.921   1.018   0.969   1.032   1.086   0.958   0.937   1.063   0.881   0.942   1.009   0.958   0.954   0.885   0.863   0.896
    41.00    0.986   1.015   1.033   0.952   0.978   1.003   0.974   1.052   0.967   1.009   1.053   0.991   0.971   0.900   0.918   0.902   0.923   0.893   0.941   0.892   0.860   0.920   0.934   0.983   1.105   1.131   1.031   0.997   0.983   0.939   1.003   0.915   1.051   0.911   0.911   0.913   0.880   0.862   0.887   0.907   0.880
    31.00    0.901   1.071   0.986   0.907   0.876   0.948   0.959   0.987   0.906   0.965   1.005   0.992   0.958   0.974   0.883   0.926   0.913   0.954   1.033   0.858   0.987   0.943   0.977   1.114   1.101   1.176   1.053   0.871   0.860   0.913   0.948   0.966   0.986   0.910   0.897   0.794   0.871   0.875   0.892   0.935   0.900
    21.00    0.919   1.058   0.969   1.003   0.969   0.924   0.914   0.988   0.946   0.899   1.078   1.068   0.945   0.908   0.925   0.938   0.874   1.031   1.062   0.991   0.953   0.945   0.916   1.092   1.073   1.128   1.071   0.924   0.895   0.883   0.967   0.950   1.110   0.920   0.859   0.822   0.881   0.956   0.808   0.863   0.964
    11.00    1.001   1.042   0.938   0.976   0.908   0.931   0.934   0.924   0.834   0.970   0.981   1.126   1.089   0.940   0.999   1.000   0.883   0.942   1.011   1.049   1.053   1.081   1.005   1.001   1.045   0.994   1.014   1.045   0.888   1.015   0.956   0.998   1.013   1.029   0.926   0.896   0.848   0.931   0.912   0.887   0.913
     1.00    0.974   1.006   0.987   0.971   0.918   0.938   1.028   1.048   0.901   0.911   0.910   1.051   1.017   0.982   0.938   1.028   0.954   0.900   1.021   0.998   1.035   1.090   1.074   0.972   0.966   0.896   0.833   0.963   1.012   1.041   1.060   0.946   0.983   1.026   0.944   1.032   0.883   0.906   0.871   0.912   0.958

   Mean standard deviation across all grid points:
      u component:    0.983 m/s
      v component:    0.956 m/s
      w component:    0.968 m/s


U-component (X) statistics from the interpolated hub point:

   Mean =  10.0066 m/s
   TI   =   9.4589 %


Processing complete.  9.1719 CPU seconds used.
