
This summary file was generated by TurbSim (from OpenFAST-v3.4.1) on 29-Nov-2024 at 15:49:18.


Runtime Options:

      2050  Random seed #1
         0  Random seed #2
         F  Output binary HH turbulence parameters?
         F  Output formatted turbulence parameters?
         F  Output AeroDyn HH files?
         T  Output AeroDyn FF files?
         F  Output BLADED FF files?
         F  Output tower data?
         F  Output HAWC FF files?
         F  Output formatted FF files?
         T  Output coherent turbulence time step file?
 0 -  NONE  IEC turbulence models scaled to exact specified standard deviation


Turbine/Model Specifications:

        31  Vertical grid-point matrix dimension
        41  Horizontal grid-point matrix dimension
     0.100  Time step [seconds]
   200.000  Analysis time [seconds]
   200.000  Usable output time [seconds]
   151.000  Hub height [m]
   300.000  Grid height [m]
   600.000  Grid width [m]
     0.000  Vertical flow angle [degrees]
     0.000  Horizontal flow angle [degrees]


Meteorological Boundary Conditions:

    IECVKM  IEC von Karman spectral model
         1  IEC standard: IEC 61400-1 Ed. 2: 1999
    10.000  Percent turbulence intensity, IEC 61400-1 Ed. 2: 1999
       NTM  IEC Normal Turbulence Model
       N/A  IEC Extreme Turbulence Model (ETM) "c" parameter [m/s]
       PL   Wind profile type
   150.000  Reference height [m]
    10.000  Reference wind speed [m/s]
       N/A  Jet height [m]
     0.100  Power law exponent
     0.030  Surface roughness length [m]


Non-IEC Meteorological Boundary Conditions:

       N/A  Site latitude [degrees]
       N/A  Gradient Richardson number
       N/A  Friction or shear velocity [m/s]
       N/A  Mixing layer depth [m]
       N/A  Mean hub u'w' Reynolds stress
       N/A  Mean hub u'v' Reynolds stress
       N/A  Mean hub v'w' Reynolds stress


Spatial Coherence Models:

       IEC  u-component coherence model
       IEC  v-component coherence model
       IEC  w-component coherence model
(   12.000, 0.659E-03)  u-component coherence parameters
(   12.000, 0.659E-03)  v-component coherence parameters
(   12.000, 0.659E-03)  w-component coherence parameters
       N/A  Coherence exponent


You have requested that the following file(s) be generated:

   ./TurbulentWind_30WT/FOWTs/Wind\InflowWind_High_WT26.bts (AeroDyn/TurbSim full-field wind file)


Turbulence Simulation Scaling Parameter Summary:

   Turbulence model used                            =  IEC von Karman
   Turbulence characteristic                        =  User-specified
   IEC standard                                     =  IEC 61400-1 Ed. 2: 1999
   Mean wind speed at hub height                    =   10.007 m/s
   Characteristic value of standard deviation       =    1.001 m/s
   Turbulence scale                                 =   21.000 m
   Isotropic integral scale                         =   73.500 m
   Characteristic value of hub turbulence intensity =   10.000%
   Gradient Richardson number                       =    0.000

   Wind profile type                                =  Power law
   Power law exponent                               =    0.100
   Mean shear across rotor disk                     =    0.016 (m/s)/m
   Assumed rotor diameter                           =  300.000 m
   Surface roughness length                         =    0.030 m

   Nyquist frequency of turbulent wind field        =    5.000 Hz

   Number of time steps in the FFT                  =     2600
   Number of time steps output                      =     2600
   Number of points simulated                       =     1271


Mean Flow Angles:

   Vertical   =   0.0 degrees
   Horizontal =   0.0 degrees

Mean Wind Speed Profile:

   Height    Wind Speed   Horizontal Angle  Vertical Angle  U-comp (X)   V-comp (Y)   W-comp (Z)
     (m)        (m/s)         (degrees)       (degrees)       (m/s)        (m/s)        (m/s)   
   ------    ----------   ----------------  --------------  ----------   ----------   ----------
    301.0       10.72            0.00            0.00         10.72         0.00         0.00
    291.0       10.69            0.00            0.00         10.69         0.00         0.00
    281.0       10.65            0.00            0.00         10.65         0.00         0.00
    271.0       10.61            0.00            0.00         10.61         0.00         0.00
    261.0       10.57            0.00            0.00         10.57         0.00         0.00
    251.0       10.53            0.00            0.00         10.53         0.00         0.00
    241.0       10.49            0.00            0.00         10.49         0.00         0.00
    231.0       10.44            0.00            0.00         10.44         0.00         0.00
    221.0       10.40            0.00            0.00         10.40         0.00         0.00
    211.0       10.35            0.00            0.00         10.35         0.00         0.00
    201.0       10.30            0.00            0.00         10.30         0.00         0.00
    191.0       10.24            0.00            0.00         10.24         0.00         0.00
    181.0       10.19            0.00            0.00         10.19         0.00         0.00
    171.0       10.13            0.00            0.00         10.13         0.00         0.00
    161.0       10.07            0.00            0.00         10.07         0.00         0.00
    151.0       10.01            0.00            0.00         10.01         0.00         0.00
    141.0        9.94            0.00            0.00          9.94         0.00         0.00
    131.0        9.87            0.00            0.00          9.87         0.00         0.00
    121.0        9.79            0.00            0.00          9.79         0.00         0.00
    111.0        9.70            0.00            0.00          9.70         0.00         0.00
    101.0        9.61            0.00            0.00          9.61         0.00         0.00
     91.0        9.51            0.00            0.00          9.51         0.00         0.00
     81.0        9.40            0.00            0.00          9.40         0.00         0.00
     71.0        9.28            0.00            0.00          9.28         0.00         0.00
     61.0        9.14            0.00            0.00          9.14         0.00         0.00
     51.0        8.98            0.00            0.00          8.98         0.00         0.00
     41.0        8.78            0.00            0.00          8.78         0.00         0.00
     31.0        8.54            0.00            0.00          8.54         0.00         0.00
     21.0        8.22            0.00            0.00          8.22         0.00         0.00
     11.0        7.70            0.00            0.00          7.70         0.00         0.00
      1.0        6.06            0.00            0.00          6.06         0.00         0.00


Harvested Random Seeds after Generation of the Random Numbers:

    735779710 Harvested seed # 1
   1971657505 Harvested seed # 2


Hub-Height Simulated Turbulence Statistical Summary:

   Type of Wind        Min (m/s)   Mean (m/s)    Max (m/s)  Sigma (m/s)       TI (%)
   ----------------    ---------   ----------    ---------  -----------       ------
   Longitudinal (u)         7.35        10.01        12.38        0.893        8.929
   Lateral (v)             -3.33         0.00         2.98        1.023       10.220
   Vertical (w)            -3.27         0.00         2.63        1.027       10.263
   U component              7.35        10.01        12.38        0.893        8.929
   V component             -3.33         0.00         2.98        1.023       10.220
   W component             -3.27         0.00         2.63        1.027       10.263
   Horizontal (U&V)         7.35        10.06        12.40        0.894        8.889
   Total                    7.41        10.11        12.42        0.892        8.819

                       Min Reynolds     Mean Reynolds    Max Reynolds    Correlation
   Product             Stress (m/s)^2   Stress (m/s)^2   Stress (m/s)^2  Coefficient
   ----------------    --------------   --------------   --------------  -----------
   u'w'                     -4.692             0.069             5.104         0.075
   u'v'                     -4.433             0.028             3.119         0.031
   v'w'                     -5.534             0.192             6.585         0.183


   Friction Velocity (Ustar)  =      0.263 m/s
   Maximum Instantaneous TKE  =      6.627 (m/s)^2
   Maximum Instantaneous CTKE =      3.448 (m/s)^2


Grid Point Variance Summary:

   Y-coord -300.00 -285.00 -270.00 -255.00 -240.00 -225.00 -210.00 -195.00 -180.00 -165.00 -150.00 -135.00 -120.00 -105.00  -90.00  -75.00  -60.00  -45.00  -30.00  -15.00    0.00   15.00   30.00   45.00   60.00   75.00   90.00  105.00  120.00  135.00  150.00  165.00  180.00  195.00  210.00  225.00  240.00  255.00  270.00  285.00  300.00

   Height   Standard deviation at grid points for the u component:
   301.00    1.110   1.074   1.186   1.089   1.175   1.154   1.019   0.950   1.089   1.031   1.015   0.955   0.922   0.962   0.825   0.803   0.775   0.765   0.782   0.786   1.003   0.923   0.800   1.025   1.100   1.046   0.834   0.963   1.049   0.889   0.984   0.996   0.933   0.860   0.864   0.831   0.856   0.934   1.004   1.046   1.049
   291.00    1.129   1.048   1.107   1.054   1.087   1.115   1.121   1.122   1.068   1.105   1.086   0.986   1.018   0.981   1.016   0.900   0.765   0.787   0.811   0.853   0.920   0.927   0.896   0.995   1.116   1.074   0.991   0.881   0.938   1.023   0.897   0.970   0.928   0.874   0.843   0.890   0.959   1.015   0.938   1.045   0.934
   281.00    1.091   1.053   1.107   1.103   1.120   1.083   1.205   1.148   1.036   1.065   1.054   0.902   0.961   1.102   0.991   0.886   0.834   0.766   0.787   0.785   0.802   0.871   0.841   0.984   1.024   1.143   1.123   1.007   0.982   0.879   0.875   0.948   0.888   0.942   0.893   0.877   0.959   1.009   1.116   0.999   0.974
   271.00    1.016   1.165   1.055   0.973   1.153   1.064   1.185   0.994   0.969   1.048   1.073   0.800   0.944   1.142   1.001   0.943   0.835   0.784   0.760   0.803   0.799   0.870   0.796   0.939   0.934   1.027   0.961   1.044   0.959   0.992   0.876   0.883   0.971   0.893   0.912   0.981   0.965   1.017   1.106   1.038   1.018
   261.00    0.977   1.170   1.117   1.169   1.055   1.181   1.182   1.093   1.079   1.137   1.126   0.929   0.944   1.054   1.049   0.915   0.868   0.831   0.857   0.837   0.851   0.920   0.865   0.926   0.912   0.974   0.989   1.030   1.041   1.025   1.007   0.970   0.929   0.913   0.995   0.988   0.941   0.954   0.963   0.921   0.988
   251.00    1.100   1.113   1.115   1.063   1.142   1.284   1.246   1.149   1.169   1.105   1.011   1.026   1.072   1.126   1.103   0.903   0.919   0.850   0.837   0.824   0.865   0.849   0.914   0.871   0.885   0.899   0.996   1.143   1.002   0.934   1.072   0.971   0.928   0.959   0.973   0.960   0.995   0.908   0.966   0.988   0.884
   241.00    1.069   1.224   1.229   1.167   1.302   1.325   1.266   1.045   1.189   0.988   1.081   1.045   1.000   1.064   1.030   0.989   0.866   0.890   0.932   0.797   0.892   0.797   0.912   0.875   0.917   1.009   1.050   1.039   0.905   0.958   0.938   0.939   0.894   1.031   1.119   1.038   0.960   1.026   1.005   0.879   0.744
   231.00    0.944   1.067   1.149   1.192   1.272   1.303   1.024   1.109   1.006   1.000   0.956   0.962   0.845   1.011   0.996   0.966   0.801   0.814   0.806   0.847   0.834   0.840   0.900   0.978   0.952   0.908   0.963   0.907   1.054   0.911   0.964   0.877   0.957   1.107   1.220   1.088   0.975   1.040   1.021   0.827   0.854
   221.00    1.094   1.159   1.212   1.256   1.338   1.171   1.126   1.077   1.043   0.958   1.014   0.956   0.905   1.079   0.959   0.902   0.931   0.858   0.839   0.780   0.956   0.825   0.988   1.050   1.122   0.993   0.888   0.981   0.988   1.059   0.953   0.936   0.975   1.031   1.166   1.098   0.999   1.060   1.093   0.971   0.854
   211.00    1.165   1.075   1.204   1.222   1.368   1.209   1.202   1.110   1.044   1.003   0.999   0.950   0.915   0.950   0.960   0.943   0.813   0.815   0.749   0.843   0.842   0.983   0.969   1.116   1.163   0.972   0.959   1.021   0.930   1.032   0.923   0.948   1.019   1.024   1.042   1.093   1.065   1.084   1.096   0.976   0.983
   201.00    1.111   1.171   1.156   1.191   1.441   1.237   1.142   1.193   1.195   1.120   0.964   0.914   0.830   0.860   1.013   0.815   0.823   0.839   0.916   0.864   0.915   1.066   1.006   1.083   1.131   1.091   1.004   1.021   0.932   1.034   1.037   0.928   0.948   0.936   0.951   1.087   1.110   1.107   1.204   1.080   0.992
   191.00    1.188   1.245   1.271   1.311   1.393   1.311   1.079   1.102   1.145   1.260   1.050   1.074   0.977   0.905   1.086   1.046   0.916   0.929   0.919   0.916   0.919   0.968   0.987   1.178   1.023   0.965   0.964   0.908   0.998   1.088   1.014   0.927   0.890   0.900   0.955   1.091   1.044   1.101   1.061   1.051   0.917
   181.00    1.181   1.163   1.220   1.211   1.322   1.372   1.136   1.171   1.190   1.132   1.081   0.966   0.935   0.908   1.024   0.913   0.874   0.854   0.870   0.971   1.051   1.025   1.123   1.073   1.014   0.907   0.950   0.984   1.122   1.031   0.978   0.948   0.900   0.813   0.993   1.052   1.054   1.022   1.054   1.136   0.964
   171.00    1.153   1.266   1.249   1.181   1.202   1.289   1.206   1.203   1.123   1.179   1.142   1.137   1.025   1.016   0.897   0.957   0.868   0.817   0.814   0.935   1.054   1.090   0.916   1.018   0.921   0.940   0.859   1.040   0.942   0.983   0.996   0.937   0.845   0.918   0.962   0.941   0.956   0.952   0.935   1.001   0.982
   161.00    1.228   1.121   1.193   1.179   1.122   1.256   1.068   1.082   1.069   1.087   1.073   0.987   1.067   0.997   0.909   0.851   0.976   0.862   0.768   0.945   1.033   1.042   0.986   0.975   1.025   0.862   0.998   1.077   0.909   0.909   0.828   0.849   0.840   0.904   0.865   0.897   1.038   0.916   0.934   0.978   0.963
   151.00    1.134   1.088   1.130   1.269   1.263   1.187   1.072   1.076   1.078   1.011   1.049   1.006   1.120   0.916   0.939   0.871   0.974   0.888   0.902   0.927   0.893   0.943   0.989   0.973   0.964   0.977   1.027   1.094   1.045   1.012   0.856   0.785   0.801   0.962   0.889   0.928   1.036   0.871   0.884   0.936   0.962
   141.00    1.045   0.936   1.040   1.085   1.239   1.262   1.126   1.066   1.036   1.129   1.003   1.089   1.042   1.124   0.918   0.969   0.975   0.991   0.879   0.838   0.889   0.998   1.015   0.948   0.978   1.002   0.999   1.116   0.982   0.948   1.095   0.913   0.917   0.987   0.989   0.965   1.149   0.935   0.864   0.842   0.818
   131.00    1.060   0.949   0.940   0.973   1.119   1.175   1.097   1.088   1.122   1.011   1.089   1.044   1.040   1.039   1.001   1.068   1.001   0.985   0.853   1.023   0.899   0.970   1.091   1.107   1.151   1.049   1.121   1.110   0.964   0.863   1.007   0.961   0.926   0.881   0.944   1.058   1.109   1.083   0.969   0.922   0.813
   121.00    1.092   1.036   1.020   1.053   1.178   1.207   1.118   1.093   1.121   1.094   1.100   0.907   1.134   1.027   1.058   1.230   1.093   0.980   1.044   0.999   1.002   1.103   1.184   1.152   1.152   1.052   1.085   1.035   0.977   1.010   0.979   1.028   0.930   0.958   0.846   1.001   1.078   1.079   0.887   0.868   0.801
   111.00    1.125   1.093   0.995   1.067   1.013   1.160   1.104   1.043   1.190   1.154   1.030   0.935   1.022   1.120   1.159   1.289   1.166   1.058   1.049   1.051   1.162   1.158   1.202   1.169   1.083   1.046   1.014   0.955   0.955   1.000   0.933   0.934   0.943   0.862   0.888   0.957   1.034   1.192   0.964   0.948   0.944
   101.00    1.054   1.091   1.002   0.946   1.012   1.174   1.063   1.106   1.065   1.047   1.116   0.962   1.002   1.157   1.290   1.184   1.135   1.184   1.113   1.158   1.116   1.118   1.094   1.130   1.003   0.954   0.983   0.871   0.931   0.971   0.889   0.918   0.979   0.889   0.916   0.992   1.029   1.100   1.026   0.947   0.862
    91.00    1.065   1.090   0.981   0.966   0.922   1.066   1.032   1.026   1.060   1.147   1.156   0.901   0.903   1.067   1.124   1.257   1.152   1.167   1.003   1.017   0.995   1.053   1.009   1.023   0.938   0.980   0.984   0.867   0.866   0.901   0.936   0.814   0.954   0.949   0.876   0.945   0.974   1.084   1.068   1.002   0.860
    81.00    0.914   1.074   1.002   0.951   0.977   0.951   1.045   1.023   1.106   1.137   1.185   1.019   0.884   1.031   1.244   1.203   1.190   1.072   0.992   0.808   0.988   0.909   0.984   0.956   0.881   0.977   0.893   0.727   0.789   0.759   0.891   0.920   1.006   0.933   0.963   0.800   0.835   1.068   0.972   0.968   0.927
    71.00    0.982   1.097   1.069   1.062   0.947   0.922   0.920   1.011   0.957   1.041   1.017   1.059   0.881   0.894   1.061   1.237   1.154   1.095   1.028   0.968   0.883   0.997   0.981   0.941   0.909   0.969   0.866   0.775   0.903   0.818   0.892   0.927   1.018   1.068   0.962   0.812   0.809   0.955   0.984   0.855   0.805
    61.00    0.999   1.029   1.075   1.083   1.002   0.914   0.845   0.945   0.946   0.964   1.027   0.979   0.920   0.923   0.981   1.101   1.161   0.983   0.993   0.928   0.857   0.893   0.958   0.866   0.952   0.871   0.846   0.784   0.832   0.925   0.861   0.893   0.846   0.970   0.917   0.870   0.790   0.849   0.833   0.857   0.812
    51.00    0.975   0.918   1.077   1.000   1.010   0.806   0.990   0.989   0.899   0.912   0.983   0.973   0.883   0.959   0.855   0.977   1.137   1.110   1.093   1.093   0.939   0.942   0.922   0.927   0.911   0.839   0.875   0.735   0.802   0.955   0.892   0.829   0.821   0.922   0.914   0.903   0.965   0.789   0.774   0.808   0.872
    41.00    0.986   1.062   1.013   0.987   1.019   0.946   1.031   1.047   1.030   0.958   0.994   0.953   0.919   0.973   0.921   0.984   1.104   1.068   1.008   1.034   0.870   0.984   0.937   0.901   0.904   0.896   0.892   0.717   0.791   0.887   0.890   0.809   0.885   0.836   0.891   0.783   0.845   0.805   0.771   0.781   0.865
    31.00    0.867   1.018   0.946   0.900   0.919   0.875   0.949   1.017   0.887   0.925   0.891   1.003   0.923   0.984   0.959   1.044   1.053   0.961   1.059   0.966   0.925   1.079   0.935   0.897   0.922   0.942   0.921   0.769   0.838   0.876   0.920   0.920   0.802   0.848   0.911   0.767   0.851   0.848   0.826   0.878   0.868
    21.00    0.838   0.916   0.895   0.885   0.891   0.881   0.971   0.945   0.897   1.025   0.903   1.024   0.977   0.950   1.056   0.933   0.904   0.942   1.021   0.906   0.934   0.953   0.985   0.793   0.864   0.986   0.972   0.950   0.813   0.831   0.858   0.939   0.910   0.953   0.869   0.870   0.872   0.948   0.914   0.924   0.901
    11.00    0.983   0.900   0.871   0.810   0.889   0.908   1.026   0.950   1.005   0.883   0.927   1.042   0.985   0.926   0.961   0.930   0.848   0.967   1.028   0.885   0.889   1.064   0.931   0.783   0.813   0.875   0.850   0.869   0.768   0.756   0.794   0.877   0.814   0.855   0.887   0.824   0.930   0.955   0.892   0.853   0.854
     1.00    0.963   0.976   0.893   0.774   0.835   0.962   0.964   0.943   1.017   0.916   0.980   0.960   1.014   0.984   0.919   1.039   1.050   0.957   1.026   1.066   0.992   0.948   0.943   0.884   0.820   0.942   0.882   0.866   0.849   0.864   0.835   0.867   0.971   0.799   0.843   0.924   0.936   0.945   1.008   0.818   0.905

   Height   Standard deviation at grid points for the v component:
   301.00    0.925   0.811   0.849   0.826   0.893   0.896   0.974   0.918   0.995   1.023   1.003   0.894   0.943   0.875   0.925   1.060   0.960   0.991   1.180   1.113   0.911   0.950   0.934   0.937   0.908   0.973   1.036   1.078   0.981   0.997   0.944   0.949   0.892   0.902   0.804   0.891   0.930   0.994   0.967   0.913   0.854
   291.00    0.836   0.917   0.890   0.919   0.929   0.911   0.951   0.912   0.996   1.136   0.971   0.924   0.869   0.858   0.991   1.035   1.095   1.172   1.061   1.071   0.970   0.971   0.978   1.032   0.923   0.919   0.936   1.080   1.024   1.006   0.990   1.000   0.885   0.850   0.889   0.833   0.905   1.015   0.931   0.930   0.927
   281.00    0.876   0.934   0.955   1.040   0.968   0.887   0.939   0.884   0.952   0.988   1.032   0.917   0.897   0.881   0.948   0.951   1.106   1.014   1.097   1.045   1.026   1.088   0.974   1.009   1.024   1.041   1.056   0.983   1.047   1.004   0.976   1.000   0.951   0.800   0.836   0.908   0.905   0.910   0.864   0.911   0.936
   271.00    0.973   0.923   0.972   0.992   0.948   0.926   0.888   0.938   1.003   1.006   1.023   0.896   0.939   0.976   0.943   0.944   1.071   1.139   1.036   1.100   0.905   0.974   0.946   0.942   0.944   0.926   0.943   1.022   1.139   1.058   0.973   1.016   0.935   0.863   0.975   1.030   1.004   0.911   0.875   0.901   0.905
   261.00    0.945   0.938   0.979   0.995   0.940   1.025   0.920   1.079   1.006   0.980   0.987   0.920   1.050   0.961   0.962   1.007   1.054   1.173   1.048   1.028   1.043   1.061   1.069   0.883   0.924   0.979   0.978   1.061   1.038   1.004   1.022   1.073   1.019   1.021   1.023   0.952   0.954   0.942   0.920   1.027   1.024
   251.00    0.819   0.929   1.011   0.925   0.910   1.030   0.988   1.018   0.931   0.925   0.910   0.962   1.060   0.927   1.003   1.047   1.020   1.025   1.109   1.155   1.142   1.041   0.983   0.961   0.986   0.935   0.966   0.986   1.065   1.028   0.962   1.008   0.924   1.038   1.038   1.005   1.003   1.048   1.067   1.072   1.030
   241.00    0.785   0.874   0.905   0.943   0.971   1.005   1.010   1.009   0.965   0.904   0.912   1.014   1.041   1.004   1.039   0.949   1.004   0.941   1.079   1.107   1.127   1.037   0.970   1.036   0.913   0.838   0.879   0.962   1.087   1.055   1.020   0.948   0.897   1.014   1.057   1.303   1.058   1.038   1.117   1.121   1.024
   231.00    0.815   0.872   0.881   0.958   0.943   0.923   0.855   0.986   1.001   0.932   0.920   1.023   1.036   0.934   1.112   0.992   0.936   0.962   1.074   1.085   1.142   1.149   0.898   0.986   0.821   0.833   0.946   1.029   1.005   0.994   1.019   1.051   1.016   1.076   1.071   1.254   1.217   1.017   1.092   1.100   1.021
   221.00    0.931   0.893   0.877   0.899   0.930   0.928   0.833   0.999   0.941   0.971   0.980   1.011   1.012   1.037   0.984   0.971   0.956   0.882   0.947   1.019   1.069   0.995   0.907   0.905   0.840   0.851   0.960   1.044   1.087   1.015   0.890   0.967   0.918   0.947   1.039   1.195   1.131   1.015   1.104   1.060   0.969
   211.00    0.923   0.893   0.972   0.923   0.980   0.876   0.882   1.047   1.034   0.961   0.998   0.961   0.956   0.861   0.910   0.944   1.038   0.840   0.889   0.867   1.115   1.062   0.890   0.862   0.959   0.837   0.945   0.970   0.973   1.032   0.991   0.930   0.882   1.033   1.074   1.079   1.085   1.064   1.092   0.882   0.905
   201.00    1.001   0.982   1.120   1.005   1.084   1.051   0.963   1.006   1.029   1.006   1.009   1.098   1.073   0.952   0.943   0.943   0.914   0.942   0.820   0.929   1.006   1.023   0.940   1.020   0.995   0.904   0.872   0.958   1.073   0.954   0.955   0.875   0.961   1.047   1.128   1.098   1.188   1.019   1.034   1.001   1.034
   191.00    1.052   0.975   1.168   1.041   0.989   1.096   0.946   0.983   0.970   0.930   1.026   1.042   1.019   0.940   0.919   0.897   0.897   0.964   0.874   0.829   0.937   0.906   0.981   0.934   0.989   0.946   0.822   0.962   1.047   1.003   1.022   0.909   0.998   1.101   1.162   1.083   1.088   1.041   0.920   1.062   0.892
   181.00    1.071   0.964   1.101   1.033   0.867   1.015   0.969   0.921   0.959   1.018   1.005   0.970   0.941   0.904   0.890   0.896   0.864   0.969   0.902   0.985   0.900   0.943   0.957   0.897   0.931   0.875   0.877   0.878   1.009   1.000   1.132   0.961   0.980   0.983   1.030   1.030   1.173   1.032   1.030   1.064   1.002
   171.00    1.109   0.978   1.046   1.010   0.858   0.942   0.951   0.976   0.889   0.999   1.063   0.924   0.990   0.960   1.036   0.889   0.949   1.018   0.862   0.961   1.032   0.956   0.921   0.895   0.899   0.886   0.825   0.943   1.022   1.071   1.081   0.980   0.947   0.959   0.998   0.992   1.099   1.051   1.005   1.011   1.013
   161.00    1.040   1.055   1.082   0.923   0.917   1.033   0.923   0.882   0.978   1.070   0.957   1.000   1.006   1.065   0.973   0.942   1.009   1.021   0.965   0.990   0.927   1.022   0.972   0.990   0.931   0.912   0.833   0.948   0.955   0.998   1.072   0.997   1.007   1.036   1.027   1.173   1.112   1.017   1.047   0.959   0.935
   151.00    1.021   1.098   1.072   0.935   0.907   1.016   0.867   0.843   0.862   1.042   0.908   0.890   0.941   1.013   0.973   1.029   1.049   0.976   0.951   1.016   1.023   0.929   1.083   1.010   0.839   0.910   0.920   0.846   0.884   0.960   1.053   1.049   0.912   0.864   1.017   1.061   1.109   1.004   0.982   0.935   0.954
   141.00    0.980   1.029   1.034   0.987   0.929   1.020   0.915   0.950   0.922   0.994   0.915   0.993   0.941   0.932   1.013   1.013   1.114   1.036   1.036   1.013   1.002   0.908   1.021   1.027   0.903   0.865   0.907   0.908   0.873   0.964   1.052   1.030   0.930   0.880   0.948   0.997   1.075   0.991   0.997   0.945   0.935
   131.00    0.956   1.000   1.019   0.914   0.838   0.948   1.001   1.006   0.959   1.020   1.012   1.022   1.020   0.972   1.041   1.032   1.136   1.026   1.052   1.101   1.056   0.855   1.068   1.053   0.967   0.853   0.848   0.960   1.063   0.999   1.025   1.008   0.929   0.853   0.932   1.011   0.996   0.971   0.897   0.967   0.969
   121.00    0.980   0.965   0.985   0.935   0.839   0.954   1.020   1.020   1.051   1.077   1.069   1.081   1.025   1.055   1.091   1.146   1.113   1.054   1.066   0.987   0.981   0.944   1.022   0.936   0.920   0.913   0.869   0.865   1.060   1.044   0.962   0.981   0.818   0.878   0.897   0.943   0.957   0.958   0.934   0.919   0.892
   111.00    0.906   0.974   1.003   1.010   1.003   0.961   0.920   0.987   0.982   0.993   1.060   1.076   0.995   1.126   1.108   1.075   1.145   1.078   0.999   0.987   1.043   1.021   0.920   0.891   0.839   0.923   0.896   0.910   0.938   0.902   0.960   0.915   0.921   1.007   0.886   0.879   0.977   1.015   0.992   0.945   0.853
   101.00    1.017   0.972   1.086   0.992   1.024   0.927   0.904   1.061   0.917   1.057   1.127   1.092   0.981   1.040   1.024   1.000   1.051   1.158   1.115   0.991   0.990   0.897   0.950   0.964   0.836   0.944   0.855   0.957   0.939   0.886   0.967   0.968   0.956   0.849   0.941   0.896   0.967   1.005   0.974   0.816   0.990
    91.00    0.988   0.902   0.920   1.049   1.027   0.864   0.895   1.033   1.032   1.037   1.149   1.073   1.101   1.054   1.028   1.022   1.051   1.089   1.110   0.888   0.977   0.853   0.908   1.016   1.055   0.948   0.942   0.974   0.942   0.927   0.969   1.003   0.983   0.803   0.851   0.771   0.871   0.913   0.903   0.949   0.941
    81.00    0.963   1.013   0.936   1.057   0.952   0.890   1.079   1.066   1.035   1.066   1.115   1.038   1.074   1.142   1.049   1.084   1.048   1.133   1.101   0.979   0.966   0.947   1.043   0.988   1.070   1.078   0.967   0.917   0.883   0.830   0.929   0.905   0.878   0.933   0.928   0.897   0.900   0.950   0.943   0.847   0.834
    71.00    1.014   0.945   0.982   1.000   0.989   0.980   0.960   1.082   1.013   1.157   1.159   1.005   1.193   1.121   1.039   1.036   1.141   1.074   1.053   0.999   0.955   0.944   0.972   0.877   0.937   1.004   0.995   0.941   0.926   0.866   0.892   0.938   0.987   1.070   0.919   0.913   0.904   0.995   0.968   0.897   0.835
    61.00    0.947   0.938   1.004   1.067   1.021   0.962   0.914   0.973   1.115   1.093   1.208   1.161   1.202   1.074   0.978   1.087   1.108   1.109   1.003   0.976   0.887   0.905   0.966   0.870   0.921   0.950   0.916   0.910   0.907   0.802   0.910   0.886   1.035   1.088   0.950   0.874   0.915   0.931   0.907   0.996   0.895
    51.00    0.944   1.012   1.034   0.908   1.017   0.905   0.987   1.129   1.196   1.097   1.101   1.235   1.250   1.133   1.079   1.024   1.079   1.089   1.079   0.946   0.834   0.964   0.937   0.873   0.829   0.914   0.894   0.952   0.888   0.870   0.901   0.986   0.983   1.040   0.952   0.876   0.802   0.872   0.984   0.997   0.922
    41.00    0.971   1.071   1.034   0.928   0.971   1.024   1.038   1.107   1.190   1.200   1.242   1.228   1.126   1.060   1.083   0.973   1.066   1.092   1.010   0.988   0.963   0.913   0.904   0.941   0.926   0.984   0.986   1.026   1.021   0.960   0.868   0.911   0.951   1.138   0.816   0.907   0.868   0.877   0.948   1.005   0.975
    31.00    0.970   1.048   0.874   1.015   0.949   1.028   1.041   0.956   1.151   1.281   1.211   1.095   1.004   0.955   1.069   1.057   1.166   1.091   1.077   1.009   1.045   0.879   0.822   0.910   0.959   1.048   1.014   0.971   0.956   0.967   0.978   0.922   1.001   1.084   1.001   0.882   0.856   0.778   0.850   0.991   0.925
    21.00    1.015   0.942   0.988   0.936   0.942   0.954   0.908   0.912   1.030   1.073   1.041   0.915   0.898   0.961   1.026   1.001   1.045   1.146   1.069   1.135   1.066   0.907   0.844   0.924   1.086   1.086   0.953   0.928   0.976   0.914   1.008   1.079   1.049   1.020   1.145   0.833   0.940   0.913   0.824   0.979   0.881
    11.00    0.969   0.922   1.037   0.920   0.992   0.970   0.908   0.965   0.952   0.936   0.911   1.014   0.878   0.874   0.973   0.864   1.034   1.100   1.027   1.106   0.988   0.947   0.951   1.038   1.151   1.039   0.914   1.054   1.013   0.936   1.053   1.037   0.908   0.947   1.033   0.949   0.927   0.934   0.847   0.958   0.854
     1.00    0.974   1.004   0.996   0.955   0.931   0.925   0.952   0.990   0.864   0.938   0.898   0.994   0.841   0.919   0.938   0.917   0.958   0.997   1.023   1.068   0.995   0.908   0.899   0.975   1.054   1.032   0.979   1.015   0.993   1.088   1.071   1.025   0.909   0.958   0.966   0.958   1.023   0.815   0.882   0.945   0.918

   Height   Standard deviation at grid points for the w component:
   301.00    0.918   0.881   1.003   0.944   0.896   0.988   0.986   1.025   1.160   0.999   1.029   1.002   0.931   0.913   0.899   0.929   0.819   0.919   0.836   0.827   0.913   0.919   0.967   1.005   1.105   0.963   0.998   1.062   1.004   0.838   0.838   0.902   0.991   0.934   0.962   1.015   1.044   0.926   0.930   0.932   1.016
   291.00    0.957   0.926   0.846   0.966   0.967   1.017   1.073   1.083   1.130   1.120   1.041   1.005   0.957   0.923   0.936   0.881   0.899   0.928   0.837   0.812   0.895   0.911   0.933   0.948   1.088   1.026   1.053   0.945   0.858   0.925   0.883   0.827   0.986   1.034   0.901   0.924   1.044   0.942   0.980   1.033   1.003
   281.00    0.941   0.890   0.847   0.835   0.871   1.004   1.096   0.946   1.113   1.135   1.106   1.117   0.901   0.950   0.988   0.961   0.962   0.953   0.936   0.940   0.892   0.942   0.855   0.891   1.091   1.046   1.041   0.979   0.885   0.920   0.856   0.864   1.000   0.995   0.808   0.810   0.860   1.008   1.048   1.036   1.048
   271.00    0.967   0.821   0.832   0.844   0.850   0.911   1.103   1.119   1.142   1.070   1.081   1.081   1.042   0.992   1.095   1.189   1.046   0.917   0.864   0.982   0.921   0.998   0.838   0.951   0.926   0.973   1.080   0.988   0.963   0.995   0.993   0.862   1.028   0.996   0.905   0.818   0.939   0.989   1.055   1.059   1.027
   261.00    1.066   0.885   0.829   0.840   0.924   0.969   1.050   1.067   1.114   1.039   1.174   1.104   1.059   1.074   1.071   1.103   0.977   0.954   0.893   0.943   0.911   0.952   0.946   0.913   1.001   0.871   0.969   0.977   1.061   0.937   0.937   0.877   0.906   0.952   0.946   0.872   0.907   0.966   1.020   1.037   1.090
   251.00    0.933   0.888   0.801   0.859   0.960   0.978   0.962   0.997   1.096   1.104   1.103   1.069   1.040   1.084   1.089   1.076   0.982   1.016   0.988   0.871   0.911   0.836   0.948   1.022   0.914   0.933   0.930   0.991   0.990   0.970   0.832   0.897   0.990   0.956   0.950   0.901   0.951   0.967   1.058   0.974   1.141
   241.00    0.951   0.929   0.873   0.864   0.833   0.869   0.894   1.020   1.050   1.154   1.108   0.920   1.064   1.038   1.042   0.977   1.041   0.923   0.924   0.856   0.875   0.946   1.061   1.026   1.025   0.914   0.925   0.898   1.022   1.026   0.840   0.906   0.934   0.926   0.905   0.964   0.890   1.027   1.121   1.101   1.106
   231.00    1.022   0.896   0.888   0.904   0.841   0.904   0.908   0.947   1.063   1.114   1.028   1.028   1.033   1.024   0.942   1.111   1.063   0.950   0.956   0.836   0.866   1.010   1.020   0.992   1.043   1.025   1.041   1.003   0.987   0.996   0.842   0.808   0.921   0.927   0.907   0.947   1.011   0.982   1.063   1.031   1.046
   221.00    1.021   0.925   0.855   0.890   0.903   0.855   0.912   0.901   0.938   1.146   1.053   1.085   0.995   0.932   0.992   1.040   1.049   1.029   0.932   0.930   0.933   0.932   0.990   0.950   1.065   1.034   1.005   0.960   0.924   0.982   0.950   0.896   0.938   1.011   0.970   0.900   0.969   1.042   1.022   0.975   1.030
   211.00    0.959   0.971   0.961   0.837   0.879   0.857   0.862   0.940   0.977   1.110   1.160   0.979   1.008   0.965   1.055   1.009   0.952   1.003   0.941   0.870   0.964   1.000   0.970   1.025   0.957   1.000   1.021   0.898   0.871   1.043   1.134   1.001   0.924   0.995   0.965   0.850   0.949   1.108   1.005   0.945   0.960
   201.00    1.056   1.042   0.935   0.892   0.886   0.926   0.945   0.968   0.924   1.057   1.125   1.039   1.046   1.060   0.964   1.042   1.102   1.052   1.005   0.962   0.957   0.974   0.906   0.959   0.983   0.976   0.996   1.022   1.032   1.051   1.087   0.984   0.875   0.895   0.951   0.931   0.961   0.970   0.986   0.885   0.867
   191.00    1.053   1.045   0.996   0.859   0.911   0.848   0.799   0.869   0.933   0.948   1.056   1.017   1.011   1.024   1.010   0.939   1.073   1.072   1.038   1.021   0.889   0.945   0.902   0.990   1.016   0.960   0.931   0.998   0.957   1.016   1.094   0.924   0.935   0.980   0.920   0.952   0.996   0.903   0.857   0.847   0.791
   181.00    1.100   1.093   0.967   1.006   0.879   0.868   0.857   0.897   0.977   0.951   1.054   0.951   1.047   1.027   1.021   1.040   1.101   1.106   1.013   0.937   0.897   1.007   0.903   0.858   1.084   1.085   1.063   1.010   0.999   0.981   1.073   1.048   1.122   0.933   1.004   0.968   0.801   0.852   0.782   0.862   0.884
   171.00    1.050   0.908   0.910   0.909   0.835   0.878   0.878   0.932   0.922   0.958   1.039   0.959   0.997   1.003   1.042   0.984   0.978   0.996   0.825   0.920   0.908   1.009   1.033   0.874   1.011   1.080   1.104   1.121   0.990   1.070   1.114   1.061   1.004   0.952   0.988   0.975   0.906   0.849   0.849   0.967   0.984
   161.00    0.896   0.918   1.019   0.909   0.863   0.857   0.846   0.904   0.893   0.846   0.892   0.939   1.077   0.956   1.014   0.900   0.944   0.955   0.842   0.930   1.022   0.995   1.054   0.921   0.934   1.107   1.091   1.050   1.088   1.075   1.132   0.975   1.050   0.915   0.898   0.937   0.874   0.869   0.979   0.886   0.900
   151.00    0.883   0.957   1.061   0.932   0.885   0.802   0.850   0.894   0.951   0.856   0.883   0.953   0.927   0.990   0.901   0.917   0.891   0.873   0.841   1.021   1.027   1.104   1.117   0.978   1.008   1.060   1.059   1.053   1.101   1.103   1.104   0.982   1.030   0.888   0.840   0.920   0.806   0.834   0.949   0.825   1.014
   141.00    0.905   0.930   0.953   0.902   0.881   0.744   0.873   0.873   0.942   0.886   0.867   0.950   0.856   0.977   0.917   0.877   0.748   0.849   0.809   0.932   1.059   1.034   1.063   1.029   1.011   1.108   1.063   0.997   1.115   1.142   1.022   0.965   0.943   0.945   0.916   0.874   0.841   0.911   0.993   0.997   0.926
   131.00    0.958   0.929   0.932   0.950   0.861   0.908   0.854   0.909   0.936   0.812   0.958   1.020   0.930   0.935   0.860   0.824   0.789   0.854   0.831   0.862   0.959   0.964   0.973   1.020   1.169   1.128   1.172   1.057   1.162   1.139   0.990   1.001   0.926   0.847   0.887   0.917   0.902   0.900   1.018   0.949   0.958
   121.00    1.062   0.922   0.916   0.918   0.872   0.857   0.891   0.959   0.980   0.874   0.976   0.955   0.964   1.012   0.794   0.824   0.894   0.774   0.839   0.865   0.934   0.792   0.858   0.973   1.103   1.043   1.049   1.002   1.084   1.054   0.978   0.865   0.835   0.875   1.001   0.907   0.939   0.974   0.961   1.010   0.989
   111.00    1.008   0.956   0.957   0.938   0.912   0.934   0.835   0.946   0.944   0.919   0.915   0.945   0.958   0.951   0.859   0.916   0.971   0.834   0.748   0.877   0.921   0.852   0.947   0.945   1.083   1.057   1.095   0.987   1.009   1.040   0.991   0.887   0.866   0.909   0.932   0.882   0.989   0.974   0.914   0.953   0.962
   101.00    0.952   1.055   0.997   1.033   0.900   0.936   0.870   0.891   0.910   0.891   0.943   0.994   0.995   0.966   0.849   0.810   0.804   0.818   0.859   0.910   0.947   0.933   1.034   1.103   1.104   1.169   1.138   0.996   1.053   1.031   0.988   0.905   0.837   0.966   0.933   0.952   0.962   0.972   0.887   0.882   1.012
    91.00    0.985   1.111   0.986   1.011   0.909   0.948   0.870   0.853   0.928   0.920   0.903   0.960   0.956   0.999   0.953   0.784   0.875   0.797   0.930   0.907   0.954   0.946   1.013   1.116   1.049   1.137   1.119   1.033   1.092   0.982   0.962   0.901   0.814   0.821   1.021   1.028   0.941   0.928   0.907   0.920   1.007
    81.00    1.124   1.119   0.957   0.953   0.908   0.936   0.834   0.979   0.937   0.866   1.012   0.929   0.968   0.942   0.879   0.831   0.908   0.992   0.948   0.971   1.042   1.055   1.109   0.984   1.069   1.071   1.128   0.989   1.014   0.918   0.830   0.876   0.851   0.871   1.021   1.081   0.940   1.006   0.973   0.956   0.983
    71.00    1.126   1.105   1.035   0.903   0.919   0.960   0.985   0.950   0.941   0.959   1.017   0.973   0.985   0.956   0.953   0.914   0.891   0.953   0.951   1.057   1.046   1.079   1.112   1.126   0.981   1.047   1.021   1.116   1.078   0.887   0.883   0.927   0.809   0.868   0.930   1.104   1.004   1.011   0.882   0.976   0.962
    61.00    1.053   1.124   0.892   0.824   1.022   0.893   0.896   0.993   1.009   0.995   1.068   0.921   0.942   0.877   0.925   0.904   0.898   0.954   1.111   1.117   1.084   1.072   1.071   1.031   1.028   1.078   1.082   1.076   1.034   0.907   0.859   0.966   0.844   0.882   0.851   1.069   1.117   0.975   1.037   1.048   0.936
    51.00    0.909   0.963   0.947   0.940   0.943   0.964   1.003   0.985   0.970   1.036   0.983   0.984   1.001   0.960   0.928   0.828   0.931   1.050   1.043   1.169   0.932   1.029   1.121   1.040   1.114   1.080   1.082   1.023   0.936   0.860   1.016   1.074   1.036   0.926   0.999   1.106   1.058   1.070   1.112   0.997   0.956
    41.00    0.865   0.936   0.883   0.942   0.970   0.968   0.972   0.874   0.891   0.925   1.036   0.982   1.042   0.999   0.900   0.884   0.845   0.868   1.034   1.145   0.951   0.987   1.106   1.051   1.050   1.019   1.009   1.022   0.967   0.925   1.011   0.973   1.043   0.981   1.026   1.036   0.930   1.010   1.071   1.053   0.922
    31.00    0.857   0.909   0.883   0.876   0.961   1.010   1.113   0.887   0.880   0.913   1.033   1.032   0.942   0.986   0.939   0.852   0.900   0.858   0.924   1.116   1.138   0.942   1.033   1.069   0.974   0.956   0.931   0.883   1.005   1.045   1.065   1.029   1.036   0.953   1.103   0.911   1.042   1.113   1.125   1.117   1.052
    21.00    0.911   0.905   0.926   0.929   0.953   1.133   1.034   0.945   0.863   0.840   0.870   1.005   0.916   0.880   0.969   0.962   1.007   0.951   1.083   1.015   1.052   0.944   1.052   1.058   1.063   0.981   1.027   1.020   0.897   1.052   0.982   1.024   0.963   0.997   1.014   1.041   1.146   1.180   1.089   1.056   1.017
    11.00    0.882   0.980   1.001   0.915   1.033   1.034   1.003   0.941   0.836   0.819   0.911   0.942   0.888   0.913   0.909   0.904   0.992   0.987   1.063   0.947   1.013   0.897   0.972   1.086   1.036   0.980   1.000   0.997   0.947   1.048   0.978   1.029   0.970   0.944   0.990   1.089   1.164   1.119   1.107   1.145   1.114
     1.00    0.974   1.021   0.959   0.912   0.975   1.025   1.035   0.865   0.984   0.833   0.899   0.978   0.948   0.877   0.848   0.945   0.940   0.983   1.054   0.919   0.979   0.962   0.947   1.006   1.027   1.000   1.025   0.939   0.836   1.005   1.050   0.951   0.992   1.016   0.999   1.098   1.147   1.137   1.098   1.166   1.020

   Mean standard deviation across all grid points:
      u component:    0.987 m/s
      v component:    0.981 m/s
      w component:    0.970 m/s


U-component (X) statistics from the interpolated hub point:

   Mean =  10.0066 m/s
   TI   =   8.9291 %


Processing complete.  13.859 CPU seconds used.
