
This summary file was generated by TurbSim (from OpenFAST-v3.4.1) on 25-Nov-2024 at 22:31:59.


Runtime Options:

      2046  Random seed #1
         0  Random seed #2
         F  Output binary HH turbulence parameters?
         F  Output formatted turbulence parameters?
         F  Output AeroDyn HH files?
         T  Output AeroDyn FF files?
         F  Output BLADED FF files?
         F  Output tower data?
         F  Output HAWC FF files?
         F  Output formatted FF files?
         T  Output coherent turbulence time step file?
 0 -  NONE  IEC turbulence models scaled to exact specified standard deviation


Turbine/Model Specifications:

        31  Vertical grid-point matrix dimension
        41  Horizontal grid-point matrix dimension
     0.100  Time step [seconds]
   200.000  Analysis time [seconds]
   200.000  Usable output time [seconds]
   151.000  Hub height [m]
   300.000  Grid height [m]
   600.000  Grid width [m]
     0.000  Vertical flow angle [degrees]
     0.000  Horizontal flow angle [degrees]


Meteorological Boundary Conditions:

    IECVKM  IEC von Karman spectral model
         1  IEC standard: IEC 61400-1 Ed. 2: 1999
    10.000  Percent turbulence intensity, IEC 61400-1 Ed. 2: 1999
       NTM  IEC Normal Turbulence Model
       N/A  IEC Extreme Turbulence Model (ETM) "c" parameter [m/s]
       PL   Wind profile type
   150.000  Reference height [m]
    10.000  Reference wind speed [m/s]
       N/A  Jet height [m]
     0.100  Power law exponent
     0.030  Surface roughness length [m]


Non-IEC Meteorological Boundary Conditions:

       N/A  Site latitude [degrees]
       N/A  Gradient Richardson number
       N/A  Friction or shear velocity [m/s]
       N/A  Mixing layer depth [m]
       N/A  Mean hub u'w' Reynolds stress
       N/A  Mean hub u'v' Reynolds stress
       N/A  Mean hub v'w' Reynolds stress


Spatial Coherence Models:

       IEC  u-component coherence model
       IEC  v-component coherence model
       IEC  w-component coherence model
(   12.000, 0.659E-03)  u-component coherence parameters
(   12.000, 0.659E-03)  v-component coherence parameters
(   12.000, 0.659E-03)  w-component coherence parameters
       N/A  Coherence exponent


You have requested that the following file(s) be generated:

   ./TurbulentWind_20WT/FOWTs/Wind\InflowWind_High_WT22.bts (AeroDyn/TurbSim full-field wind file)


Turbulence Simulation Scaling Parameter Summary:

   Turbulence model used                            =  IEC von Karman
   Turbulence characteristic                        =  User-specified
   IEC standard                                     =  IEC 61400-1 Ed. 2: 1999
   Mean wind speed at hub height                    =   10.007 m/s
   Characteristic value of standard deviation       =    1.001 m/s
   Turbulence scale                                 =   21.000 m
   Isotropic integral scale                         =   73.500 m
   Characteristic value of hub turbulence intensity =   10.000%
   Gradient Richardson number                       =    0.000

   Wind profile type                                =  Power law
   Power law exponent                               =    0.100
   Mean shear across rotor disk                     =    0.016 (m/s)/m
   Assumed rotor diameter                           =  300.000 m
   Surface roughness length                         =    0.030 m

   Nyquist frequency of turbulent wind field        =    5.000 Hz

   Number of time steps in the FFT                  =     2600
   Number of time steps output                      =     2600
   Number of points simulated                       =     1271


Mean Flow Angles:

   Vertical   =   0.0 degrees
   Horizontal =   0.0 degrees

Mean Wind Speed Profile:

   Height    Wind Speed   Horizontal Angle  Vertical Angle  U-comp (X)   V-comp (Y)   W-comp (Z)
     (m)        (m/s)         (degrees)       (degrees)       (m/s)        (m/s)        (m/s)   
   ------    ----------   ----------------  --------------  ----------   ----------   ----------
    301.0       10.72            0.00            0.00         10.72         0.00         0.00
    291.0       10.69            0.00            0.00         10.69         0.00         0.00
    281.0       10.65            0.00            0.00         10.65         0.00         0.00
    271.0       10.61            0.00            0.00         10.61         0.00         0.00
    261.0       10.57            0.00            0.00         10.57         0.00         0.00
    251.0       10.53            0.00            0.00         10.53         0.00         0.00
    241.0       10.49            0.00            0.00         10.49         0.00         0.00
    231.0       10.44            0.00            0.00         10.44         0.00         0.00
    221.0       10.40            0.00            0.00         10.40         0.00         0.00
    211.0       10.35            0.00            0.00         10.35         0.00         0.00
    201.0       10.30            0.00            0.00         10.30         0.00         0.00
    191.0       10.24            0.00            0.00         10.24         0.00         0.00
    181.0       10.19            0.00            0.00         10.19         0.00         0.00
    171.0       10.13            0.00            0.00         10.13         0.00         0.00
    161.0       10.07            0.00            0.00         10.07         0.00         0.00
    151.0       10.01            0.00            0.00         10.01         0.00         0.00
    141.0        9.94            0.00            0.00          9.94         0.00         0.00
    131.0        9.87            0.00            0.00          9.87         0.00         0.00
    121.0        9.79            0.00            0.00          9.79         0.00         0.00
    111.0        9.70            0.00            0.00          9.70         0.00         0.00
    101.0        9.61            0.00            0.00          9.61         0.00         0.00
     91.0        9.51            0.00            0.00          9.51         0.00         0.00
     81.0        9.40            0.00            0.00          9.40         0.00         0.00
     71.0        9.28            0.00            0.00          9.28         0.00         0.00
     61.0        9.14            0.00            0.00          9.14         0.00         0.00
     51.0        8.98            0.00            0.00          8.98         0.00         0.00
     41.0        8.78            0.00            0.00          8.78         0.00         0.00
     31.0        8.54            0.00            0.00          8.54         0.00         0.00
     21.0        8.22            0.00            0.00          8.22         0.00         0.00
     11.0        7.70            0.00            0.00          7.70         0.00         0.00
      1.0        6.06            0.00            0.00          6.06         0.00         0.00


Harvested Random Seeds after Generation of the Random Numbers:

    765770631 Harvested seed # 1
   1971657505 Harvested seed # 2


Hub-Height Simulated Turbulence Statistical Summary:

   Type of Wind        Min (m/s)   Mean (m/s)    Max (m/s)  Sigma (m/s)       TI (%)
   ----------------    ---------   ----------    ---------  -----------       ------
   Longitudinal (u)         6.40        10.01        12.80        1.093       10.924
   Lateral (v)             -2.71         0.00         2.36        0.903        9.019
   Vertical (w)            -2.44        -0.00         2.30        0.888        8.879
   U component              6.40        10.01        12.80        1.093       10.924
   V component             -2.71         0.00         2.36        0.903        9.019
   W component             -2.44        -0.00         2.30        0.888        8.879
   Horizontal (U&V)         6.42        10.05        12.80        1.090       10.853
   Total                    6.54        10.09        12.82        1.088       10.790

                       Min Reynolds     Mean Reynolds    Max Reynolds    Correlation
   Product             Stress (m/s)^2   Stress (m/s)^2   Stress (m/s)^2  Coefficient
   ----------------    --------------   --------------   --------------  -----------
   u'w'                     -5.468             0.031             4.941         0.032
   u'v'                     -4.113             0.111             4.609         0.112
   v'w'                     -2.908             0.181             3.506         0.226


   Friction Velocity (Ustar)  =      0.176 m/s
   Maximum Instantaneous TKE  =      7.565 (m/s)^2
   Maximum Instantaneous CTKE =      3.286 (m/s)^2


Grid Point Variance Summary:

   Y-coord -300.00 -285.00 -270.00 -255.00 -240.00 -225.00 -210.00 -195.00 -180.00 -165.00 -150.00 -135.00 -120.00 -105.00  -90.00  -75.00  -60.00  -45.00  -30.00  -15.00    0.00   15.00   30.00   45.00   60.00   75.00   90.00  105.00  120.00  135.00  150.00  165.00  180.00  195.00  210.00  225.00  240.00  255.00  270.00  285.00  300.00

   Height   Standard deviation at grid points for the u component:
   301.00    0.992   1.127   1.080   1.057   1.013   0.998   0.982   0.926   0.870   0.729   0.828   0.854   0.894   1.083   1.039   0.898   1.036   0.993   0.961   0.967   0.868   0.997   0.976   0.945   0.944   0.871   0.928   0.928   0.875   0.781   0.828   0.961   0.849   0.817   0.811   0.904   0.837   0.862   0.929   0.852   1.010
   291.00    1.094   1.072   1.043   1.100   1.142   0.956   0.993   0.857   0.795   0.832   0.815   0.804   0.828   1.023   1.062   0.882   1.055   0.931   0.945   1.023   0.977   0.891   0.858   0.920   0.999   0.916   0.917   0.824   0.812   0.793   0.845   0.833   0.947   0.948   0.844   0.936   0.812   0.909   0.837   0.840   0.966
   281.00    1.048   1.059   1.035   1.009   1.061   0.968   0.942   0.959   0.874   0.871   0.772   0.807   0.882   0.977   1.069   0.936   0.959   0.899   0.909   0.940   0.910   0.868   0.898   0.975   0.938   1.067   0.958   0.890   0.978   0.920   0.942   0.838   0.887   0.909   0.930   0.993   0.906   0.879   0.862   0.895   0.975
   271.00    0.959   0.943   0.913   0.990   0.928   0.944   0.883   0.973   0.926   0.859   0.803   0.848   1.033   1.087   1.100   1.010   0.918   0.832   0.916   0.881   0.855   0.965   0.963   0.989   0.974   1.056   1.060   0.987   0.946   0.990   0.912   0.903   0.749   0.883   0.911   0.948   0.961   0.863   0.800   0.925   0.981
   261.00    0.966   0.929   0.951   0.976   0.930   0.937   0.842   0.919   0.889   0.966   0.842   0.907   0.902   1.031   0.963   0.966   0.924   0.955   0.843   0.816   0.863   0.910   0.916   0.901   0.951   1.015   1.002   0.904   0.946   0.920   0.863   0.996   0.789   0.814   0.847   0.876   0.887   0.882   0.860   0.907   0.939
   251.00    0.993   0.863   0.964   0.960   1.101   1.111   1.075   0.984   1.009   0.973   0.932   0.779   0.972   0.861   0.897   0.913   0.977   0.948   0.870   0.989   0.931   0.905   0.990   0.907   0.897   1.011   1.025   0.900   0.970   1.026   0.865   0.915   0.801   0.767   0.777   0.739   0.771   0.801   0.921   0.919   0.938
   241.00    0.923   0.883   0.889   0.967   1.035   1.150   1.056   0.978   1.066   1.094   0.881   0.907   0.892   0.839   0.812   0.918   0.882   0.904   0.918   0.980   0.938   0.898   0.907   0.972   1.002   1.049   0.992   1.093   0.973   1.046   0.837   0.883   0.806   0.868   0.741   0.763   0.839   0.920   0.926   0.809   0.860
   231.00    0.906   1.003   0.982   0.854   0.946   1.118   1.029   1.009   0.991   1.022   1.038   0.962   0.897   0.814   0.790   0.857   0.859   0.824   0.796   0.929   0.897   0.818   0.995   0.911   1.081   1.042   1.036   1.044   1.009   0.984   0.979   0.792   0.817   0.893   0.862   0.874   0.859   0.945   0.867   0.850   0.906
   221.00    0.859   0.957   0.790   0.972   0.927   1.021   1.052   1.041   0.956   1.020   1.103   0.936   0.937   0.911   0.888   0.936   0.949   0.850   0.859   0.888   0.913   0.907   0.972   0.935   1.034   0.975   0.885   0.890   1.034   0.909   1.063   0.895   0.805   0.857   0.861   0.856   0.895   0.944   0.919   1.042   0.837
   211.00    0.931   0.905   0.847   0.913   0.852   0.936   0.904   0.969   1.043   1.066   1.065   1.006   0.872   0.935   0.896   0.901   1.010   0.944   0.812   0.847   0.877   0.886   1.047   0.920   0.989   0.937   0.893   0.980   1.052   1.004   0.983   0.893   0.837   0.859   0.822   0.744   1.008   0.948   0.963   0.962   0.924
   201.00    0.941   0.954   1.070   0.946   0.954   0.907   0.842   0.961   1.028   1.003   1.040   0.894   0.983   0.968   0.870   0.910   0.943   0.977   0.927   0.823   0.788   0.936   1.167   0.972   1.003   0.928   0.850   1.080   1.051   1.055   1.040   0.958   0.862   0.826   0.772   0.930   1.030   0.959   0.933   0.940   0.960
   191.00    1.018   1.091   1.029   0.881   0.855   0.854   0.915   0.915   0.941   0.938   1.019   0.768   0.857   1.001   0.912   0.954   0.961   1.000   0.862   0.835   0.910   0.969   1.059   1.077   1.082   1.005   0.871   0.912   1.020   0.998   1.030   0.965   0.893   0.801   0.740   0.861   1.034   0.952   0.936   0.986   0.952
   181.00    1.000   1.043   1.016   0.926   0.852   0.838   0.817   0.853   0.820   0.920   0.831   0.880   0.910   0.873   0.894   0.833   1.032   1.005   0.970   0.871   0.944   1.017   1.031   1.114   1.254   1.034   0.969   0.851   0.862   0.850   0.991   0.816   0.832   0.761   0.736   0.796   0.948   0.878   0.924   1.003   0.985
   171.00    0.996   1.025   0.944   0.977   0.892   0.785   0.770   0.789   0.841   0.800   0.805   0.896   1.001   1.025   0.920   0.933   0.997   1.011   0.939   0.998   1.030   1.055   1.132   1.028   1.170   0.960   1.023   0.852   0.855   0.838   0.909   0.882   0.779   0.777   0.760   0.911   0.896   0.963   0.918   0.898   0.831
   161.00    1.081   1.015   0.875   0.966   0.956   0.777   0.801   0.857   0.782   0.748   0.808   0.857   0.971   0.952   1.042   0.833   0.976   0.974   0.943   1.059   1.001   1.028   0.981   1.069   1.064   0.969   0.920   0.876   0.830   0.914   0.852   0.806   0.809   0.829   0.813   0.806   0.946   0.909   0.911   0.913   0.824
   151.00    0.964   1.048   1.165   0.984   0.924   0.777   0.788   0.862   0.809   0.832   0.780   0.825   0.831   0.877   0.967   0.868   0.940   0.995   0.949   1.096   1.093   0.903   1.006   1.041   0.966   0.912   0.965   0.919   0.908   0.919   0.852   0.853   0.826   0.838   0.867   0.817   0.926   0.812   0.800   0.861   0.859
   141.00    0.962   1.088   1.098   0.986   0.907   0.785   0.943   0.955   0.862   0.873   0.859   0.807   0.872   0.870   0.950   0.852   0.919   1.047   1.017   1.088   1.023   0.965   1.048   0.977   0.878   0.964   0.854   0.888   0.894   0.891   0.803   0.871   0.843   0.759   0.798   0.792   0.831   0.794   0.895   0.904   0.902
   131.00    0.801   1.004   1.047   1.056   0.964   0.851   0.894   0.954   0.938   0.945   0.841   0.890   0.957   1.006   0.991   0.884   0.934   0.988   1.060   1.032   1.132   0.985   0.952   0.814   0.941   0.901   0.804   0.795   0.789   0.783   0.849   0.915   0.905   0.779   0.846   0.765   0.801   0.827   0.875   0.962   0.916
   121.00    0.870   0.993   1.008   1.092   0.944   0.878   0.786   0.846   0.987   0.822   0.859   0.932   1.010   0.965   0.914   0.916   1.077   1.011   1.082   1.053   1.141   0.973   0.899   0.878   0.858   0.778   0.780   0.768   0.763   0.731   0.775   0.841   0.871   0.908   0.897   0.756   0.839   0.866   0.963   0.852   0.783
   111.00    0.864   0.901   0.940   0.924   0.909   0.866   0.884   0.813   0.928   0.896   0.905   0.924   0.930   0.947   0.960   0.885   0.934   0.972   1.146   1.131   1.142   0.911   0.950   0.931   0.889   0.813   0.882   0.772   0.794   0.790   0.814   0.889   0.827   0.864   0.865   0.788   0.817   0.796   0.814   0.851   0.748
   101.00    0.792   0.892   0.950   0.926   0.863   0.858   0.897   0.866   1.000   0.972   0.944   0.912   0.899   0.956   0.774   0.891   0.876   0.938   1.036   1.109   0.994   0.993   0.913   0.878   0.954   0.860   0.964   0.893   0.909   0.906   0.900   0.860   0.767   0.868   0.878   0.814   0.799   0.841   0.862   0.896   0.937
    91.00    0.886   0.890   1.009   0.985   0.933   0.928   0.779   0.843   0.965   1.067   1.001   1.039   0.998   1.019   0.791   0.962   0.967   1.001   1.097   1.139   0.942   0.962   0.927   0.897   0.971   0.944   0.933   0.968   1.023   0.864   0.826   0.822   0.805   0.870   0.913   0.911   0.786   0.821   0.761   0.919   0.882
    81.00    0.868   0.936   0.991   0.997   1.062   1.034   0.906   0.949   1.047   1.046   1.098   1.149   1.014   0.902   0.969   1.079   0.996   0.940   1.106   1.083   0.932   0.916   0.902   0.955   0.956   0.994   0.854   0.968   1.000   0.873   0.850   0.766   0.835   0.976   0.826   0.916   0.854   0.773   0.799   0.873   0.927
    71.00    0.884   0.826   0.913   1.075   1.081   1.117   0.984   0.867   0.958   0.968   1.043   1.098   0.986   0.958   0.954   1.028   0.858   0.944   0.995   0.978   0.824   0.894   0.917   0.971   0.978   0.982   0.950   0.960   0.936   0.957   0.835   0.770   0.862   0.882   0.831   0.979   0.861   0.764   0.792   0.799   0.931
    61.00    0.842   0.933   1.012   1.070   1.086   1.098   1.048   0.956   0.970   0.951   0.951   0.969   1.088   1.037   0.968   0.986   0.906   0.874   0.919   0.911   0.694   0.895   0.879   0.880   0.955   1.018   1.015   0.977   0.884   0.993   0.796   0.883   0.918   0.906   0.929   1.040   1.035   0.864   0.870   0.766   0.944
    51.00    0.926   0.970   1.052   1.049   1.042   1.087   1.008   0.915   0.914   0.869   0.826   0.915   1.039   1.153   0.866   0.941   1.078   0.986   0.879   0.780   0.793   0.856   0.995   0.804   0.964   1.032   1.080   1.057   0.858   0.972   0.844   0.841   0.890   1.001   0.897   0.986   0.830   0.911   0.958   0.931   0.856
    41.00    0.821   0.971   1.122   0.933   0.839   1.008   0.975   0.832   0.813   0.927   0.889   0.956   1.071   0.974   0.865   0.910   1.036   1.166   0.903   0.784   0.886   0.888   1.006   0.881   0.907   1.035   1.010   1.131   1.038   1.031   0.906   0.849   0.952   0.981   0.938   0.929   0.866   0.929   1.037   0.948   1.014
    31.00    0.890   0.892   1.109   0.900   0.912   0.829   1.043   0.901   0.901   1.061   0.917   0.988   1.064   0.943   0.899   0.789   1.054   1.111   0.919   0.932   0.928   0.889   1.064   1.062   1.027   0.931   1.006   1.093   1.069   0.949   0.986   0.815   0.924   0.999   0.939   0.898   0.967   0.888   0.972   1.014   1.011
    21.00    0.863   0.865   1.094   1.010   0.919   0.975   1.022   0.964   0.883   0.973   0.939   1.023   0.999   0.928   0.943   1.031   1.062   1.067   1.133   0.945   0.947   0.963   0.969   1.066   1.021   0.941   0.953   1.026   1.033   0.808   0.862   0.833   0.915   0.873   0.861   0.931   0.966   0.920   1.076   1.030   1.001
    11.00    0.886   1.045   1.057   1.034   1.010   1.105   1.003   0.857   0.899   0.979   0.936   1.015   1.035   1.044   0.974   1.079   1.025   1.052   1.070   0.889   0.803   0.957   1.086   1.073   1.011   1.000   0.944   0.902   0.954   0.944   0.842   0.884   0.946   0.921   0.817   0.965   0.882   0.998   0.976   0.989   0.946
     1.00    0.963   1.015   1.031   0.906   1.060   1.113   1.018   0.794   0.746   0.891   0.958   1.014   1.082   1.013   1.057   1.057   1.027   0.912   1.048   0.903   0.899   0.931   1.092   1.028   1.049   0.922   0.861   0.880   0.954   0.930   0.759   0.826   0.851   0.863   0.865   0.961   0.876   0.951   1.006   0.908   0.879

   Height   Standard deviation at grid points for the v component:
   301.00    1.199   1.087   1.044   0.945   0.926   1.027   0.984   0.917   1.000   1.036   1.109   1.037   1.111   1.077   1.037   1.084   1.101   1.033   1.081   1.164   1.085   1.020   0.938   1.007   0.957   0.967   1.002   0.993   0.891   0.908   0.869   0.996   0.957   0.910   0.801   0.851   0.999   0.953   0.844   0.856   1.000
   291.00    1.093   1.118   1.003   0.914   0.876   0.948   0.992   0.892   0.918   1.044   1.133   1.050   1.067   1.056   0.986   1.074   1.111   1.052   1.191   1.215   1.145   0.974   1.031   1.012   1.024   1.089   1.068   0.914   0.911   0.874   0.797   0.920   0.984   0.851   0.863   0.891   0.922   0.930   0.922   0.890   1.045
   281.00    1.019   1.049   0.918   0.955   0.968   0.949   0.895   0.852   0.903   0.947   1.004   1.027   1.002   0.961   1.057   1.066   1.059   1.140   1.148   1.100   1.117   0.995   1.040   1.043   0.925   1.063   1.039   0.929   0.931   0.933   0.840   0.889   0.904   0.936   0.896   0.922   1.000   1.001   1.032   0.891   0.909
   271.00    1.035   0.992   0.964   0.962   0.934   0.984   0.996   0.866   0.941   0.890   0.952   1.028   1.052   1.004   1.069   1.097   1.048   1.061   1.021   1.047   1.149   1.009   0.955   0.976   1.037   1.012   1.026   0.904   0.993   0.951   0.784   0.851   0.943   0.941   0.994   0.823   0.875   1.002   1.050   0.954   0.920
   261.00    0.963   0.985   0.861   0.929   0.903   1.000   0.940   1.016   0.897   0.959   1.004   1.069   1.091   1.017   1.067   1.082   1.170   1.129   1.005   1.023   1.142   0.991   1.038   0.946   1.020   1.011   0.964   0.949   0.945   0.974   0.895   0.827   0.913   1.037   0.987   0.880   0.907   0.875   1.028   1.011   0.990
   251.00    0.982   0.940   0.836   0.975   0.930   0.972   0.875   0.910   0.999   0.939   1.061   1.128   1.101   1.147   1.116   1.206   1.137   1.121   0.899   1.080   1.161   1.057   0.996   1.071   1.122   1.064   0.956   0.904   0.960   0.944   0.917   0.888   0.936   1.006   0.927   0.915   0.968   1.058   1.017   0.948   0.944
   241.00    0.958   1.083   0.993   1.029   0.968   0.995   0.966   0.949   0.982   0.943   1.003   1.139   1.074   1.180   1.180   1.178   1.125   1.005   0.852   1.014   1.035   0.997   1.033   1.108   1.174   1.063   1.037   0.924   1.016   0.959   1.103   1.011   0.901   1.009   0.981   0.957   0.961   0.920   1.005   0.944   0.904
   231.00    0.854   0.980   1.014   0.978   0.962   1.026   0.976   0.925   0.938   0.875   0.974   0.951   1.072   1.150   1.023   1.089   1.133   1.094   0.967   0.926   0.962   0.903   0.958   1.048   1.182   0.970   1.098   1.080   0.996   0.932   1.023   1.029   0.923   0.916   0.948   0.910   0.824   0.886   0.930   0.861   0.786
   221.00    0.857   0.950   0.911   0.912   0.909   0.995   0.848   0.914   0.943   0.882   0.960   1.029   1.001   1.077   0.916   1.046   1.059   1.063   0.945   1.008   0.916   0.831   0.925   0.960   1.046   0.983   1.075   1.040   0.984   0.965   1.000   0.928   0.992   0.928   0.942   0.939   0.955   0.842   0.879   0.877   0.964
   211.00    0.928   0.795   0.891   0.943   0.872   0.913   0.833   0.746   0.884   0.766   0.902   1.028   1.057   1.059   1.028   1.039   0.984   0.922   0.965   0.953   0.977   0.825   0.997   1.008   0.928   0.985   0.955   1.022   0.984   1.012   0.964   1.044   1.031   0.935   0.997   0.989   1.010   0.958   0.956   0.905   0.904
   201.00    0.923   0.925   0.900   0.928   0.935   0.932   0.810   0.875   0.904   0.908   0.816   0.955   0.960   0.980   1.124   1.061   0.986   0.966   0.991   0.944   1.004   0.963   1.004   1.015   1.057   0.941   0.859   0.937   0.983   0.887   0.877   1.022   1.066   0.935   0.941   0.974   1.008   1.038   0.964   0.936   0.948
   191.00    0.859   0.891   0.984   0.917   0.824   0.938   0.915   0.911   0.868   0.942   0.874   0.912   0.994   0.933   0.975   0.995   1.035   1.040   1.054   1.003   1.008   0.943   1.025   1.047   1.044   0.915   0.933   0.987   0.903   0.904   0.859   0.961   1.027   0.994   0.922   0.863   0.897   0.904   0.946   0.968   0.943
   181.00    0.887   0.931   0.999   0.850   0.855   0.942   0.890   0.962   1.023   0.946   0.849   0.963   1.010   0.972   0.985   0.960   1.103   1.029   1.042   0.967   0.965   0.975   0.921   0.925   0.959   0.927   0.950   0.935   0.926   0.898   0.892   0.962   0.975   0.935   0.890   0.858   0.970   0.880   0.877   0.962   0.907
   171.00    0.842   0.945   0.964   0.866   0.890   0.956   0.892   0.913   1.060   1.016   0.987   0.901   0.942   0.987   0.998   0.889   0.983   1.005   1.026   0.968   1.004   1.059   0.989   1.048   1.081   0.924   0.924   0.977   0.959   0.932   0.955   0.921   0.894   0.846   0.833   0.835   0.935   0.977   0.919   0.964   0.981
   161.00    0.908   0.969   0.924   0.933   1.028   1.076   0.944   0.940   1.093   1.027   0.930   0.927   0.914   0.880   0.975   0.947   0.992   0.986   0.954   0.877   0.940   0.998   0.974   0.992   0.991   0.941   0.990   0.939   0.971   0.978   0.993   0.964   0.841   0.850   0.801   0.851   0.890   0.957   0.904   0.902   0.890
   151.00    0.924   1.013   0.961   0.926   1.077   1.014   0.923   1.043   1.019   0.974   1.001   0.964   0.918   0.941   0.919   0.987   0.980   0.925   0.904   0.864   0.903   0.860   0.871   0.960   0.873   0.950   0.987   0.926   0.977   0.930   0.932   0.955   0.821   0.824   0.882   0.890   0.995   0.871   0.903   0.885   0.896
   141.00    0.937   1.040   1.041   0.918   0.949   0.948   0.915   0.922   0.947   1.047   1.041   0.952   0.896   1.047   0.934   0.944   0.936   0.870   0.826   0.930   0.912   0.867   0.883   0.953   0.939   1.009   1.057   0.988   0.987   0.909   0.900   0.859   0.835   0.900   1.003   0.923   1.042   0.958   0.950   0.897   0.910
   131.00    0.837   0.952   1.045   0.867   0.859   0.827   0.828   0.870   0.975   0.953   1.046   0.980   0.956   0.977   1.011   0.955   0.921   0.880   0.970   0.893   0.828   0.829   0.881   0.934   0.941   1.089   1.031   0.977   0.990   0.891   0.914   0.942   0.896   0.911   0.996   1.083   0.981   0.969   0.900   0.868   0.847
   121.00    0.950   0.873   0.948   0.925   0.947   0.918   0.877   0.863   0.967   0.936   0.916   0.931   0.945   1.021   0.974   0.862   0.811   0.813   0.905   0.929   0.894   0.877   0.900   0.915   0.890   0.963   0.960   1.009   1.069   0.846   0.914   0.973   0.884   0.901   1.011   1.035   1.001   0.892   0.856   0.863   0.823
   111.00    0.972   0.877   0.953   1.049   0.932   0.891   0.875   0.966   0.947   0.954   0.930   0.979   0.956   1.047   1.003   0.836   0.862   0.773   0.912   0.922   0.879   0.769   0.964   1.071   0.956   0.923   0.942   1.058   1.046   1.022   1.006   0.962   0.962   1.055   0.961   0.927   1.013   0.952   0.926   0.837   0.913
   101.00    0.911   0.898   0.997   1.004   0.881   0.929   0.944   0.919   1.061   0.919   0.921   0.914   0.939   1.001   0.927   0.909   0.881   0.773   0.896   0.962   0.929   0.827   0.958   0.947   0.987   0.943   0.997   0.946   0.996   1.036   1.043   1.041   1.081   0.988   0.894   0.921   0.974   1.027   0.915   0.826   0.911
    91.00    1.006   0.981   0.945   1.042   0.962   0.907   0.997   1.002   1.022   0.916   0.833   0.902   0.908   0.953   0.999   1.016   0.977   0.892   0.964   1.013   0.973   1.001   0.948   1.014   0.977   1.001   1.006   0.871   0.955   1.123   1.073   1.006   1.092   1.035   0.935   0.959   1.065   0.906   0.862   0.845   0.959
    81.00    0.934   1.081   0.978   0.987   1.023   0.925   0.933   0.967   0.959   0.887   0.832   0.861   0.913   0.962   0.926   0.922   0.959   1.042   0.950   0.994   0.941   1.014   0.928   0.945   0.930   0.974   1.036   0.972   0.989   1.120   1.111   1.074   1.108   1.044   1.005   1.065   0.986   0.856   0.844   0.908   0.862
    71.00    1.077   1.080   1.128   0.998   0.992   0.959   0.833   0.895   0.829   0.858   0.755   0.846   0.940   1.006   0.900   0.900   0.944   1.033   0.997   0.937   0.888   1.027   0.926   0.922   0.930   1.012   0.964   0.960   1.006   1.061   1.005   1.082   1.080   0.963   0.930   1.000   0.971   0.933   0.906   0.974   0.947
    61.00    1.025   1.045   1.045   0.995   0.987   0.957   0.863   0.917   0.852   0.939   0.878   0.839   0.899   0.907   0.941   0.931   0.932   0.984   1.005   0.874   0.936   1.020   0.957   0.924   0.943   0.888   1.011   0.879   0.912   0.986   0.956   1.003   1.013   0.950   0.889   0.981   0.955   1.000   0.920   0.973   0.926
    51.00    1.085   0.914   0.987   0.952   1.035   0.987   0.906   0.933   0.894   0.894   0.861   0.979   0.929   1.014   0.970   0.910   0.886   0.936   0.987   0.972   0.959   0.961   0.998   0.954   0.911   0.950   0.946   0.953   0.933   0.909   0.995   0.929   0.973   1.004   0.958   0.895   0.954   0.927   0.991   0.910   0.987
    41.00    1.000   0.917   0.929   1.023   0.994   0.956   0.955   0.880   0.971   0.982   0.860   0.824   0.911   1.015   0.977   0.954   0.942   0.942   1.028   0.985   0.944   0.972   0.954   0.882   0.867   0.895   0.930   0.901   0.902   0.959   1.076   0.858   0.981   1.056   0.907   0.846   0.902   0.994   0.937   0.868   0.937
    31.00    0.989   0.921   0.962   0.995   0.999   0.936   0.911   0.949   0.971   0.972   0.856   0.857   0.851   0.939   0.937   0.905   0.900   1.004   0.989   1.056   1.060   0.943   0.892   0.885   0.969   0.881   0.942   0.880   0.922   0.924   1.010   1.103   1.078   1.149   0.898   0.955   1.043   0.994   0.944   0.978   0.961
    21.00    0.943   1.027   1.038   0.939   0.957   0.905   0.987   1.090   1.110   0.927   0.937   0.937   0.808   0.861   0.898   0.869   0.870   0.982   0.997   1.069   1.109   1.050   0.891   0.845   0.875   0.904   0.903   0.976   0.951   0.971   0.953   1.142   1.037   1.106   0.994   0.909   0.996   0.982   0.969   1.040   1.007
    11.00    0.904   0.953   0.967   0.932   0.913   0.867   0.979   1.027   1.119   0.952   0.874   0.941   0.876   0.879   0.930   0.834   1.010   1.049   1.013   1.057   1.002   1.006   0.853   1.025   1.015   1.015   1.021   1.085   1.039   1.093   1.013   1.015   1.071   1.062   1.098   0.988   0.927   1.031   1.084   1.049   1.026
     1.00    0.974   0.933   0.992   1.015   0.931   0.930   1.005   1.140   1.032   1.068   0.950   0.917   0.985   0.889   0.919   0.932   1.024   1.031   0.955   0.975   1.071   0.938   0.918   1.014   1.051   0.985   1.011   1.088   1.006   1.033   0.999   0.928   0.952   1.031   0.940   0.957   0.945   1.052   1.107   1.046   1.032

   Height   Standard deviation at grid points for the w component:
   301.00    0.898   0.958   0.863   0.960   0.949   1.042   1.019   0.908   0.870   0.816   0.838   0.844   0.876   0.945   0.884   0.847   0.885   0.965   0.991   0.857   0.863   0.908   0.838   0.858   0.855   0.930   1.048   1.064   1.052   1.073   1.065   1.138   1.018   0.906   0.894   0.985   0.995   0.989   1.017   1.056   1.043
   291.00    0.898   0.995   0.937   0.951   0.910   1.006   1.058   0.959   0.914   0.878   0.953   0.932   0.912   0.920   0.874   0.841   0.897   0.948   0.964   0.911   0.823   0.853   0.916   0.881   0.879   0.977   0.995   0.995   0.975   0.985   1.040   1.095   0.988   0.892   0.960   0.901   0.891   0.962   1.003   1.053   1.033
   281.00    0.974   0.906   1.010   0.910   0.933   0.997   0.987   0.959   0.885   0.943   1.026   1.099   0.991   0.958   0.849   0.874   0.887   0.890   1.008   0.995   0.917   0.952   0.905   0.833   0.919   0.932   0.926   0.988   0.993   1.094   1.060   1.007   1.018   0.857   0.993   0.874   0.914   0.974   0.980   0.987   1.086
   271.00    0.971   0.923   0.983   0.985   0.965   0.886   0.967   0.989   0.837   0.961   0.945   1.031   1.002   0.913   0.993   0.905   0.914   0.877   0.939   1.022   0.939   0.941   0.884   0.808   0.820   0.853   0.914   0.988   1.005   0.994   1.074   1.137   0.998   0.879   0.967   0.946   0.983   0.941   0.970   0.976   0.998
   261.00    0.939   0.982   1.012   0.990   0.889   0.959   0.977   0.885   0.880   0.931   1.020   0.940   0.973   0.916   0.936   0.954   1.049   0.842   0.920   0.954   0.810   0.841   0.840   0.836   0.851   0.830   0.981   0.975   0.927   1.001   1.013   1.148   0.973   0.865   0.991   0.871   0.892   0.988   0.865   0.894   0.893
   251.00    0.922   0.887   0.972   1.010   0.959   1.033   0.993   0.937   0.863   0.898   0.935   0.957   0.945   0.939   1.001   0.932   1.027   0.870   1.001   1.009   0.915   0.838   0.812   0.843   0.964   1.014   1.009   0.992   0.893   0.967   1.030   1.073   0.948   0.898   0.977   0.961   0.896   0.875   0.917   1.007   0.955
   241.00    0.894   0.932   1.017   0.973   1.012   0.953   0.963   0.930   0.888   0.981   0.905   0.990   1.032   0.959   0.882   0.879   0.902   1.071   1.029   1.030   0.961   0.864   0.871   0.933   0.944   0.972   0.960   0.928   0.976   1.079   0.933   1.026   1.042   0.947   0.912   0.948   1.002   0.941   1.009   0.950   0.940
   231.00    0.957   0.976   0.961   0.911   1.002   0.921   0.905   1.019   0.912   0.955   0.852   1.061   1.085   0.977   0.940   0.944   0.958   1.033   1.070   1.025   0.952   1.002   0.971   0.920   0.973   0.966   0.918   0.962   0.986   1.032   1.011   1.115   0.960   0.895   0.883   0.970   0.951   0.943   1.000   0.985   0.939
   221.00    0.967   1.065   0.914   0.853   0.956   0.937   1.029   1.037   0.928   0.960   0.892   0.989   1.049   0.976   0.999   0.988   0.916   0.945   0.999   1.047   1.061   1.073   0.925   1.033   0.844   0.957   1.086   0.893   0.981   1.073   1.079   0.994   0.938   0.922   0.955   0.885   0.940   0.858   0.976   0.915   0.875
   211.00    1.019   1.070   0.923   0.794   0.948   0.926   1.024   1.022   0.887   0.982   0.973   0.993   1.028   0.971   1.024   1.028   0.944   0.925   0.901   0.982   1.066   1.059   1.007   0.914   0.886   0.951   0.946   0.934   0.862   1.012   1.139   0.981   0.966   0.933   1.017   1.048   1.066   0.953   0.916   0.946   0.960
   201.00    0.914   0.971   0.870   0.913   0.859   0.969   1.001   1.047   0.895   0.933   0.996   0.994   0.931   0.941   1.015   1.095   1.024   0.906   0.903   0.993   1.009   1.023   1.006   1.010   0.858   1.019   1.009   1.115   0.908   1.075   0.971   1.036   1.065   0.899   0.904   1.066   1.094   0.930   0.866   0.838   0.889
   191.00    0.999   0.893   0.806   0.903   0.882   0.892   0.893   0.958   0.874   0.850   1.049   1.043   0.895   0.883   1.024   1.098   1.107   0.916   0.852   0.969   1.047   1.006   0.999   1.042   0.903   0.991   0.966   0.971   0.980   1.024   1.058   1.054   0.970   0.981   0.981   1.018   1.073   1.007   0.965   0.917   0.865
   181.00    0.969   0.909   0.912   0.914   0.904   0.892   0.904   0.887   0.873   0.872   0.952   0.998   1.015   1.064   1.032   1.088   1.014   0.873   0.897   0.847   0.947   0.949   0.928   0.919   0.875   0.932   0.929   0.862   0.880   0.952   0.980   0.941   0.973   0.943   1.013   0.965   1.044   0.982   0.977   0.887   0.902
   171.00    0.949   0.958   0.918   0.942   0.849   0.815   0.828   0.831   0.972   0.916   0.895   1.048   1.051   1.074   1.030   1.105   0.965   0.941   0.897   0.773   0.932   0.943   0.896   0.808   0.878   0.951   0.897   0.865   0.954   0.925   0.967   0.902   1.022   1.100   0.945   0.923   1.040   0.844   0.839   0.859   0.924
   161.00    0.971   0.993   1.018   1.016   0.870   0.899   0.899   0.896   1.006   0.905   0.989   0.964   0.947   1.152   1.011   1.072   0.923   0.979   0.903   0.851   0.945   0.861   0.930   0.891   0.895   0.887   0.984   0.946   0.880   0.898   0.821   0.850   1.070   1.070   1.107   1.023   0.949   1.048   0.831   0.817   0.912
   151.00    0.954   1.090   1.058   1.002   0.955   0.890   0.947   0.978   0.984   0.953   0.944   1.007   1.048   1.063   1.027   1.009   0.879   0.914   0.848   0.925   0.888   0.909   0.895   0.862   0.918   0.878   0.985   0.991   0.907   0.813   0.871   0.883   0.958   1.068   1.147   1.015   0.966   1.071   0.976   0.893   0.909
   141.00    1.001   1.042   0.986   0.976   0.861   0.912   0.910   0.947   1.027   1.036   0.959   1.122   1.059   1.080   1.069   0.874   0.874   0.786   0.888   0.880   0.904   0.915   0.865   0.934   0.908   0.885   1.020   0.948   0.928   0.888   0.853   0.900   0.892   1.078   1.076   1.012   0.901   0.990   0.917   0.802   0.845
   131.00    1.036   0.999   1.030   0.989   0.864   0.869   0.895   0.925   1.043   1.035   1.050   1.068   0.993   0.905   0.978   0.984   0.818   0.926   0.920   0.850   0.866   0.893   0.822   0.910   0.824   0.884   1.002   0.963   0.798   0.922   0.918   0.902   0.957   1.140   0.935   0.984   0.863   1.004   0.864   0.816   0.874
   121.00    1.009   1.031   0.897   0.925   0.909   0.903   1.019   0.999   1.049   1.063   0.939   0.988   0.986   0.888   0.944   0.889   0.844   0.926   0.963   0.785   0.862   0.896   0.836   0.784   0.814   0.832   0.874   1.114   0.872   0.920   0.839   0.995   0.961   1.072   0.928   0.935   0.828   0.924   0.789   0.887   0.818
   111.00    0.992   0.972   0.852   0.902   0.971   0.978   1.020   1.032   1.145   0.995   0.904   0.880   0.923   0.927   0.851   0.829   0.810   0.903   0.962   0.925   0.962   0.871   0.945   0.906   0.940   0.956   1.004   1.142   0.850   0.866   1.025   1.001   0.867   1.016   0.960   1.005   0.830   0.911   0.793   0.902   0.811
   101.00    1.076   0.926   0.912   0.841   1.024   1.131   1.125   1.069   1.057   0.956   0.936   0.990   1.002   0.990   0.887   0.999   0.904   0.990   0.892   0.951   0.940   0.888   0.902   0.984   1.006   1.029   0.978   1.000   0.893   0.913   0.953   0.954   0.876   0.940   1.049   0.925   0.896   0.955   0.909   0.884   0.875
    91.00    1.057   0.923   0.910   0.966   0.976   1.061   1.090   1.046   0.954   1.030   1.015   0.958   1.017   1.004   0.941   0.980   1.084   0.946   0.935   0.850   0.935   0.880   0.976   1.000   0.929   0.975   0.966   0.886   0.829   0.829   0.877   0.885   0.875   0.955   0.914   0.885   0.816   0.946   0.955   0.956   0.956
    81.00    0.948   0.973   1.068   0.905   1.050   1.092   1.041   1.007   0.967   1.066   1.012   0.977   0.960   0.908   1.030   1.056   1.019   0.950   0.943   0.894   0.882   0.906   0.978   1.036   1.069   1.027   1.016   0.854   0.850   0.743   0.920   0.938   0.848   0.983   0.878   0.823   0.902   0.950   1.006   1.109   1.129
    71.00    0.892   1.017   1.005   1.027   1.058   0.965   0.991   1.167   1.076   1.090   1.015   1.023   1.061   1.050   1.057   1.050   1.039   0.963   0.933   0.917   0.894   0.923   0.974   1.036   1.078   1.086   0.932   0.919   0.919   0.810   0.859   0.994   0.931   0.840   0.896   0.841   0.880   1.039   0.948   1.164   1.087
    61.00    1.042   1.074   1.001   0.942   0.936   0.962   1.041   1.105   1.158   1.034   1.062   0.918   1.076   1.174   1.161   1.099   1.084   1.049   0.973   0.894   0.875   1.027   1.058   1.063   1.094   1.089   1.028   0.906   0.921   0.953   0.930   1.006   0.958   0.917   0.848   0.871   0.902   0.954   1.016   1.046   0.990
    51.00    1.071   1.089   1.026   1.038   0.988   1.053   0.987   1.060   1.073   1.073   1.071   1.062   1.005   1.027   1.120   1.010   0.978   1.007   0.996   0.926   0.897   1.004   1.120   1.051   1.066   1.060   0.986   0.918   0.933   0.995   1.003   1.030   0.954   0.902   0.848   0.781   0.815   0.865   0.884   0.878   0.911
    41.00    0.977   0.975   0.940   0.963   1.047   1.029   1.091   1.147   1.051   1.118   1.091   1.019   0.920   0.986   1.002   1.008   0.938   0.922   0.940   0.960   1.069   1.091   1.012   1.001   0.999   0.932   1.000   0.961   0.878   0.917   0.972   0.981   0.980   0.875   0.888   0.869   0.928   0.900   0.874   0.939   0.791
    31.00    1.012   0.912   0.980   1.031   0.983   1.075   1.165   1.219   1.097   1.064   1.017   1.050   0.954   0.861   0.962   0.890   0.931   0.911   1.014   0.961   1.038   1.151   1.092   1.023   1.024   0.975   0.897   0.869   0.860   0.929   0.925   1.035   0.971   0.883   0.830   0.850   0.885   0.919   0.861   0.835   0.861
    21.00    0.946   0.906   0.946   0.936   0.992   1.046   1.091   1.151   1.009   1.004   1.054   1.078   1.007   0.923   0.885   0.892   0.898   0.951   0.998   0.973   0.953   1.037   1.085   1.053   1.048   1.008   0.981   0.954   0.919   0.854   0.917   0.890   0.935   0.926   0.909   0.934   0.956   0.921   0.892   0.937   0.825
    11.00    1.006   0.971   0.895   0.931   0.950   1.009   0.973   1.012   0.990   0.956   1.031   0.995   0.933   0.952   0.860   0.924   0.899   0.876   0.899   0.951   0.898   0.983   0.971   1.004   1.025   0.905   0.970   0.892   0.949   0.903   0.902   0.920   0.963   0.953   0.991   0.971   0.902   0.902   0.855   0.920   0.888
     1.00    0.974   0.944   0.976   1.053   1.029   1.065   0.975   1.028   0.916   0.960   0.955   1.005   0.998   0.948   0.917   0.918   0.936   0.918   1.024   0.942   0.957   0.922   0.981   1.022   0.971   0.958   0.917   0.907   0.905   0.879   0.938   0.923   0.988   1.036   0.918   0.877   0.979   1.021   0.878   0.905   0.913

   Mean standard deviation across all grid points:
      u component:    0.931 m/s
      v component:    0.963 m/s
      w component:    0.957 m/s


U-component (X) statistics from the interpolated hub point:

   Mean =  10.0066 m/s
   TI   =  10.9240 %


Processing complete.  42.25 CPU seconds used.
