
This summary file was generated by TurbSim (from OpenFAST-v3.4.1) on 25-Nov-2024 at 22:27:26.


Runtime Options:

      2039  Random seed #1
         0  Random seed #2
         F  Output binary HH turbulence parameters?
         F  Output formatted turbulence parameters?
         F  Output AeroDyn HH files?
         T  Output AeroDyn FF files?
         F  Output BLADED FF files?
         F  Output tower data?
         F  Output HAWC FF files?
         F  Output formatted FF files?
         T  Output coherent turbulence time step file?
 0 -  NONE  IEC turbulence models scaled to exact specified standard deviation


Turbine/Model Specifications:

        31  Vertical grid-point matrix dimension
        41  Horizontal grid-point matrix dimension
     0.100  Time step [seconds]
   200.000  Analysis time [seconds]
   200.000  Usable output time [seconds]
   151.000  Hub height [m]
   300.000  Grid height [m]
   600.000  Grid width [m]
     0.000  Vertical flow angle [degrees]
     0.000  Horizontal flow angle [degrees]


Meteorological Boundary Conditions:

    IECVKM  IEC von Karman spectral model
         1  IEC standard: IEC 61400-1 Ed. 2: 1999
    10.000  Percent turbulence intensity, IEC 61400-1 Ed. 2: 1999
       NTM  IEC Normal Turbulence Model
       N/A  IEC Extreme Turbulence Model (ETM) "c" parameter [m/s]
       PL   Wind profile type
   150.000  Reference height [m]
    10.000  Reference wind speed [m/s]
       N/A  Jet height [m]
     0.100  Power law exponent
     0.030  Surface roughness length [m]


Non-IEC Meteorological Boundary Conditions:

       N/A  Site latitude [degrees]
       N/A  Gradient Richardson number
       N/A  Friction or shear velocity [m/s]
       N/A  Mixing layer depth [m]
       N/A  Mean hub u'w' Reynolds stress
       N/A  Mean hub u'v' Reynolds stress
       N/A  Mean hub v'w' Reynolds stress


Spatial Coherence Models:

       IEC  u-component coherence model
       IEC  v-component coherence model
       IEC  w-component coherence model
(   12.000, 0.659E-03)  u-component coherence parameters
(   12.000, 0.659E-03)  v-component coherence parameters
(   12.000, 0.659E-03)  w-component coherence parameters
       N/A  Coherence exponent


You have requested that the following file(s) be generated:

   ./TurbulentWind_20WT/FOWTs/Wind\InflowWind_High_WT15.bts (AeroDyn/TurbSim full-field wind file)


Turbulence Simulation Scaling Parameter Summary:

   Turbulence model used                            =  IEC von Karman
   Turbulence characteristic                        =  User-specified
   IEC standard                                     =  IEC 61400-1 Ed. 2: 1999
   Mean wind speed at hub height                    =   10.007 m/s
   Characteristic value of standard deviation       =    1.001 m/s
   Turbulence scale                                 =   21.000 m
   Isotropic integral scale                         =   73.500 m
   Characteristic value of hub turbulence intensity =   10.000%
   Gradient Richardson number                       =    0.000

   Wind profile type                                =  Power law
   Power law exponent                               =    0.100
   Mean shear across rotor disk                     =    0.016 (m/s)/m
   Assumed rotor diameter                           =  300.000 m
   Surface roughness length                         =    0.030 m

   Nyquist frequency of turbulent wind field        =    5.000 Hz

   Number of time steps in the FFT                  =     2600
   Number of time steps output                      =     2600
   Number of points simulated                       =     1271


Mean Flow Angles:

   Vertical   =   0.0 degrees
   Horizontal =   0.0 degrees

Mean Wind Speed Profile:

   Height    Wind Speed   Horizontal Angle  Vertical Angle  U-comp (X)   V-comp (Y)   W-comp (Z)
     (m)        (m/s)         (degrees)       (degrees)       (m/s)        (m/s)        (m/s)   
   ------    ----------   ----------------  --------------  ----------   ----------   ----------
    301.0       10.72            0.00            0.00         10.72         0.00         0.00
    291.0       10.69            0.00            0.00         10.69         0.00         0.00
    281.0       10.65            0.00            0.00         10.65         0.00         0.00
    271.0       10.61            0.00            0.00         10.61         0.00         0.00
    261.0       10.57            0.00            0.00         10.57         0.00         0.00
    251.0       10.53            0.00            0.00         10.53         0.00         0.00
    241.0       10.49            0.00            0.00         10.49         0.00         0.00
    231.0       10.44            0.00            0.00         10.44         0.00         0.00
    221.0       10.40            0.00            0.00         10.40         0.00         0.00
    211.0       10.35            0.00            0.00         10.35         0.00         0.00
    201.0       10.30            0.00            0.00         10.30         0.00         0.00
    191.0       10.24            0.00            0.00         10.24         0.00         0.00
    181.0       10.19            0.00            0.00         10.19         0.00         0.00
    171.0       10.13            0.00            0.00         10.13         0.00         0.00
    161.0       10.07            0.00            0.00         10.07         0.00         0.00
    151.0       10.01            0.00            0.00         10.01         0.00         0.00
    141.0        9.94            0.00            0.00          9.94         0.00         0.00
    131.0        9.87            0.00            0.00          9.87         0.00         0.00
    121.0        9.79            0.00            0.00          9.79         0.00         0.00
    111.0        9.70            0.00            0.00          9.70         0.00         0.00
    101.0        9.61            0.00            0.00          9.61         0.00         0.00
     91.0        9.51            0.00            0.00          9.51         0.00         0.00
     81.0        9.40            0.00            0.00          9.40         0.00         0.00
     71.0        9.28            0.00            0.00          9.28         0.00         0.00
     61.0        9.14            0.00            0.00          9.14         0.00         0.00
     51.0        8.98            0.00            0.00          8.98         0.00         0.00
     41.0        8.78            0.00            0.00          8.78         0.00         0.00
     31.0        8.54            0.00            0.00          8.54         0.00         0.00
     21.0        8.22            0.00            0.00          8.22         0.00         0.00
     11.0        7.70            0.00            0.00          7.70         0.00         0.00
      1.0        6.06            0.00            0.00          6.06         0.00         0.00


Harvested Random Seeds after Generation of the Random Numbers:

    281383852 Harvested seed # 1
   1971657505 Harvested seed # 2


Hub-Height Simulated Turbulence Statistical Summary:

   Type of Wind        Min (m/s)   Mean (m/s)    Max (m/s)  Sigma (m/s)       TI (%)
   ----------------    ---------   ----------    ---------  -----------       ------
   Longitudinal (u)         7.37        10.01        12.29        0.831        8.301
   Lateral (v)             -3.33         0.00         2.85        0.994        9.936
   Vertical (w)            -3.07        -0.00         3.00        1.055       10.547
   U component              7.37        10.01        12.29        0.831        8.301
   V component             -3.33         0.00         2.85        0.994        9.936
   W component             -3.07        -0.00         3.00        1.055       10.547
   Horizontal (U&V)         7.40        10.06        12.29        0.833        8.280
   Total                    7.40        10.11        12.29        0.836        8.269

                       Min Reynolds     Mean Reynolds    Max Reynolds    Correlation
   Product             Stress (m/s)^2   Stress (m/s)^2   Stress (m/s)^2  Coefficient
   ----------------    --------------   --------------   --------------  -----------
   u'w'                     -3.922             0.002             4.709         0.002
   u'v'                     -3.631            -0.034             3.076        -0.041
   v'w'                     -4.803             0.098             5.703         0.093


   Friction Velocity (Ustar)  =      0.046 m/s
   Maximum Instantaneous TKE  =      6.483 (m/s)^2
   Maximum Instantaneous CTKE =      3.494 (m/s)^2


Grid Point Variance Summary:

   Y-coord -300.00 -285.00 -270.00 -255.00 -240.00 -225.00 -210.00 -195.00 -180.00 -165.00 -150.00 -135.00 -120.00 -105.00  -90.00  -75.00  -60.00  -45.00  -30.00  -15.00    0.00   15.00   30.00   45.00   60.00   75.00   90.00  105.00  120.00  135.00  150.00  165.00  180.00  195.00  210.00  225.00  240.00  255.00  270.00  285.00  300.00

   Height   Standard deviation at grid points for the u component:
   301.00    0.841   0.858   0.793   0.930   1.020   0.917   1.008   0.985   1.045   1.024   1.007   1.080   0.911   0.901   1.057   1.115   1.063   1.013   0.973   1.048   1.051   0.907   0.867   0.949   0.809   0.892   0.875   0.990   1.021   0.945   0.996   1.035   0.951   0.855   0.958   0.941   0.907   1.006   1.064   1.164   1.139
   291.00    0.863   0.865   0.849   1.008   1.004   0.918   0.975   0.991   0.985   0.939   1.026   1.133   0.872   0.900   1.005   1.219   1.207   1.049   1.046   1.013   1.085   1.027   0.969   0.969   0.896   0.857   0.919   1.053   1.002   1.043   1.039   1.133   0.908   0.883   0.874   0.921   0.937   0.945   1.020   1.095   1.062
   281.00    0.865   0.873   0.913   0.893   1.003   0.960   0.893   1.018   0.981   0.894   0.963   1.022   0.818   0.818   1.131   1.191   1.246   1.149   1.120   1.018   1.072   1.172   1.105   0.969   0.907   0.929   1.089   1.103   1.086   1.051   1.112   1.029   1.029   0.893   0.892   0.850   0.882   0.955   1.000   0.929   0.934
   271.00    0.783   0.841   0.914   1.047   0.964   1.000   0.980   1.026   1.042   0.882   0.927   0.949   0.967   1.004   1.093   1.070   1.075   1.078   1.039   1.108   1.199   1.088   1.071   0.944   0.887   1.010   1.040   1.064   1.080   1.164   1.104   0.966   1.018   0.982   0.865   0.817   0.866   0.910   0.988   0.919   0.951
   261.00    0.848   0.842   0.907   0.927   0.962   0.879   0.979   1.101   1.050   0.814   0.842   0.905   0.975   0.942   0.959   0.979   1.021   0.975   0.979   1.050   1.237   1.108   1.179   1.027   0.958   0.953   1.197   0.983   1.131   1.303   1.121   1.010   0.896   0.930   0.886   0.893   1.007   0.967   0.928   0.934   0.979
   251.00    0.827   0.927   0.892   0.836   0.945   0.961   1.066   1.035   0.945   0.938   0.876   0.922   1.035   1.017   0.930   0.928   0.924   0.984   1.085   1.082   1.143   1.189   1.100   1.029   1.154   1.006   1.094   1.112   1.055   1.142   1.124   1.049   0.886   0.945   0.958   0.948   0.971   0.948   0.910   0.883   0.832
   241.00    0.849   0.926   0.924   1.026   0.988   0.907   0.957   0.986   0.996   0.939   0.873   0.834   0.997   1.054   0.808   0.941   0.961   0.920   0.964   0.998   1.018   0.994   1.011   0.986   1.025   0.988   1.005   1.067   1.060   1.050   1.087   0.905   0.851   0.898   0.885   1.014   0.884   0.868   0.911   0.853   0.928
   231.00    0.930   0.896   1.041   1.055   0.890   0.993   1.011   1.137   0.996   1.062   0.900   0.924   0.915   0.967   0.895   0.972   0.906   0.856   0.918   1.013   0.994   0.956   0.889   0.997   0.948   0.933   0.967   0.988   0.910   1.014   1.077   1.067   0.909   0.949   0.976   1.060   0.928   0.840   0.840   0.937   0.822
   221.00    1.008   0.990   1.019   0.958   0.958   1.093   0.967   0.934   1.040   1.007   0.939   0.959   0.961   0.979   0.992   0.897   0.994   0.911   0.886   0.980   0.931   0.882   0.898   0.985   0.946   0.804   0.878   0.848   0.949   1.027   1.046   1.074   0.936   0.972   0.932   1.001   0.953   0.957   0.895   0.921   0.893
   211.00    1.118   1.116   1.009   0.923   1.006   1.131   1.191   1.052   0.996   1.150   1.020   1.017   1.028   0.990   0.937   0.940   0.969   0.928   0.952   0.868   0.951   0.876   0.911   0.862   0.870   0.741   0.783   0.888   1.022   0.891   1.004   0.975   0.973   1.061   1.033   0.999   0.943   0.910   0.963   0.863   0.829
   201.00    1.221   1.126   0.947   1.075   1.058   1.232   1.153   1.068   0.973   1.024   0.988   0.920   0.950   1.031   0.853   0.812   0.942   0.912   0.971   0.863   0.928   0.931   0.884   0.914   1.034   0.834   0.818   0.771   0.858   0.816   0.857   0.988   0.986   0.996   1.025   0.897   0.933   0.954   1.082   0.917   0.848
   191.00    1.234   1.113   0.995   0.991   1.231   1.214   1.118   1.017   1.000   0.960   1.010   1.031   0.945   1.034   0.830   0.879   0.858   0.860   0.903   0.890   0.890   0.830   0.886   0.841   0.889   0.949   0.796   0.825   0.814   0.845   0.815   0.950   0.946   0.866   1.030   0.861   0.813   0.929   1.057   1.012   0.954
   181.00    1.278   1.085   1.100   1.033   1.198   1.107   1.059   1.006   0.950   0.954   0.952   0.877   0.876   0.845   0.952   0.926   0.860   0.819   0.866   0.910   0.820   0.854   0.816   0.873   0.906   0.930   0.751   0.861   0.855   0.943   0.907   0.927   1.004   0.978   1.015   0.970   0.798   0.823   0.900   0.954   1.006
   171.00    1.174   1.146   1.067   0.941   1.024   1.103   0.978   0.962   0.908   0.856   0.970   0.859   0.927   1.017   1.050   1.023   0.866   0.935   0.986   0.847   0.795   0.768   0.884   0.861   0.840   0.948   0.836   0.844   0.910   0.968   0.914   0.990   1.014   1.034   0.906   1.021   0.877   0.897   0.851   0.840   1.002
   161.00    1.075   1.140   1.038   1.035   1.032   1.017   0.947   0.799   0.777   0.862   0.909   0.874   1.008   1.064   1.179   1.171   1.114   1.156   0.985   0.888   0.745   0.891   0.903   0.854   0.902   0.970   0.984   0.830   0.860   0.846   0.977   1.115   1.027   1.111   0.922   0.946   0.876   0.867   0.877   0.900   1.016
   151.00    0.991   1.087   1.038   1.006   1.017   1.038   0.867   0.779   0.782   0.893   0.909   0.924   1.067   0.959   1.049   1.093   1.147   1.099   0.995   0.959   0.831   0.989   1.003   1.025   1.034   0.956   0.970   0.912   0.905   0.854   0.907   1.097   1.051   1.104   0.975   0.875   0.900   0.864   0.830   0.796   0.921
   141.00    1.045   1.124   1.202   1.103   0.886   1.005   1.000   0.838   0.721   0.818   0.756   0.886   1.005   1.000   1.055   1.061   1.056   1.071   1.018   1.056   0.930   1.054   1.094   0.915   0.984   1.049   0.997   0.967   0.805   0.876   1.023   1.059   1.166   1.098   1.088   0.924   0.990   0.860   1.015   0.748   0.825
   131.00    1.079   1.001   1.105   1.121   0.932   0.950   0.961   0.911   0.845   0.780   0.798   0.799   0.982   1.008   1.137   1.055   1.111   0.983   0.956   1.079   0.992   1.005   1.024   1.012   0.979   1.050   0.991   0.951   0.891   0.820   1.043   1.105   1.034   1.150   1.130   1.028   1.008   1.021   1.057   0.917   0.877
   121.00    1.066   1.166   1.054   1.109   0.957   0.970   0.910   0.887   0.922   0.747   0.803   0.925   1.113   1.147   1.219   1.093   1.026   1.049   0.979   1.067   1.115   1.010   1.000   0.974   1.060   1.025   0.896   0.940   1.010   0.888   0.986   1.049   1.024   1.010   1.049   0.993   1.075   1.075   0.983   0.882   0.906
   111.00    1.058   1.085   1.044   1.031   1.019   0.994   0.994   0.937   0.906   0.812   0.846   0.943   1.130   1.063   1.156   1.014   1.046   1.123   0.998   0.999   1.015   1.056   0.955   0.882   1.041   0.943   0.775   0.889   0.982   1.003   1.057   0.918   1.006   0.933   0.896   0.985   0.921   0.990   0.901   0.920   0.954
   101.00    0.991   1.057   0.905   0.945   0.965   0.982   0.895   0.975   0.916   0.836   0.855   1.006   1.067   1.057   1.072   1.003   1.056   1.113   0.883   0.944   1.075   0.984   0.938   0.972   1.031   0.895   0.849   0.839   1.049   1.026   1.084   0.918   0.898   0.963   0.909   1.008   0.993   1.008   1.041   0.951   0.789
    91.00    0.964   1.016   0.839   0.814   0.923   0.959   0.843   0.855   0.801   0.911   0.811   0.899   0.942   1.158   1.090   0.888   0.930   0.955   0.897   0.937   0.995   0.991   0.981   0.963   0.925   0.829   0.854   0.793   0.877   0.987   1.007   0.991   0.866   0.963   1.105   1.095   0.974   0.990   1.097   0.962   0.942
    81.00    0.938   0.953   0.932   0.877   0.861   0.895   0.861   0.730   0.802   0.801   0.921   0.978   1.042   1.139   1.081   0.999   0.948   0.913   0.969   1.023   1.129   1.040   0.829   0.874   0.944   0.894   0.826   0.841   0.846   0.931   0.974   0.934   0.894   0.955   1.001   0.938   1.035   0.992   0.941   0.932   0.931
    71.00    0.988   0.952   0.938   0.943   0.907   0.917   0.895   0.900   0.901   0.867   1.008   0.948   0.991   1.094   1.224   1.190   1.088   0.996   0.942   1.088   1.114   1.001   0.970   0.932   0.907   0.889   0.870   0.854   0.730   1.042   0.963   1.018   0.900   0.992   0.922   1.101   0.988   0.993   0.975   0.947   0.923
    61.00    0.960   0.935   0.994   1.031   0.872   0.968   0.949   0.897   0.952   0.869   0.959   0.967   1.068   1.057   1.216   1.228   1.124   0.992   1.102   1.146   0.988   0.937   0.940   0.972   0.885   0.963   0.906   0.736   0.843   1.027   0.989   0.941   0.802   0.941   1.053   1.103   1.073   0.986   1.002   1.006   0.942
    51.00    0.979   0.907   0.998   1.010   0.986   1.031   0.965   0.937   0.869   0.850   0.966   0.911   0.945   1.013   1.070   1.181   1.082   1.133   1.120   1.120   0.950   0.861   0.801   0.878   0.960   1.080   0.919   0.833   0.912   1.057   0.978   0.892   0.820   0.867   1.088   1.166   1.074   0.993   1.018   1.095   1.058
    41.00    1.062   1.015   1.091   1.079   1.058   1.098   0.891   0.852   0.917   0.768   0.965   0.915   0.971   1.092   1.045   1.182   1.062   1.083   1.149   1.082   1.028   0.942   0.855   0.902   0.939   0.946   0.916   0.859   0.863   0.958   0.881   0.838   0.832   0.971   1.079   1.055   0.916   0.985   0.986   0.950   0.964
    31.00    1.064   0.944   0.926   0.945   1.073   1.056   1.026   1.021   0.963   0.773   0.939   0.959   0.942   1.009   1.165   1.067   1.043   1.109   1.113   0.984   1.028   1.031   0.961   0.855   0.863   0.959   0.953   0.918   0.980   0.911   0.871   0.848   0.889   0.935   0.991   1.020   1.042   0.923   1.046   0.974   0.882
    21.00    0.988   0.823   0.949   0.972   1.119   1.007   1.047   0.916   0.932   0.940   0.935   1.014   0.930   0.903   0.968   1.056   0.967   1.106   1.181   1.090   1.047   1.094   0.890   0.897   0.872   0.814   0.876   0.968   0.993   0.905   0.817   0.941   0.991   0.913   0.921   1.010   0.937   1.006   1.055   0.896   0.875
    11.00    0.984   0.966   0.912   0.964   1.019   1.051   0.960   0.937   0.882   0.829   0.957   0.982   0.837   0.921   0.903   0.994   0.866   1.041   1.118   1.123   1.017   0.978   0.861   0.909   0.861   0.886   1.008   0.888   0.945   0.813   0.910   1.033   0.952   0.978   0.873   0.846   0.913   0.873   0.863   0.857   0.881
     1.00    0.963   0.893   0.900   0.926   0.982   1.062   1.093   0.931   0.968   0.872   0.961   0.986   1.096   0.870   0.908   0.951   1.017   1.057   1.112   1.189   1.082   1.051   0.946   0.841   0.811   0.913   0.978   1.014   0.903   0.889   0.983   0.968   0.954   0.870   0.844   0.985   0.870   0.910   0.903   0.854   0.954

   Height   Standard deviation at grid points for the v component:
   301.00    1.031   0.925   0.835   0.906   0.964   0.944   0.968   0.960   1.058   0.986   0.904   0.884   1.024   1.030   0.927   0.894   0.973   0.989   0.800   0.885   0.880   0.840   0.986   1.033   0.968   0.979   0.796   0.917   1.025   1.085   1.019   0.917   0.890   0.866   1.033   1.042   1.005   0.971   0.871   0.963   0.890
   291.00    1.039   1.033   0.857   0.970   0.914   0.930   0.935   1.108   1.127   1.055   0.969   0.933   0.984   0.961   1.066   0.973   0.972   0.886   0.929   0.802   0.906   0.904   0.963   0.996   0.904   0.921   0.882   0.945   0.914   0.992   1.040   0.891   0.865   0.913   1.025   0.953   1.052   0.967   0.886   0.940   0.911
   281.00    1.037   0.928   0.857   0.917   0.860   0.880   0.934   1.038   1.055   1.104   1.048   0.973   0.989   1.049   1.073   1.053   1.054   0.921   0.966   0.823   0.866   0.881   0.931   0.935   0.843   0.848   0.787   0.881   0.870   0.981   1.024   0.934   0.863   0.892   1.018   1.043   1.028   1.103   0.866   0.973   0.985
   271.00    1.051   0.924   0.942   0.836   0.875   0.878   0.890   1.011   0.946   1.005   1.002   0.873   1.065   1.021   1.108   1.063   0.955   0.851   0.963   0.907   0.917   0.938   0.932   0.942   0.965   0.851   0.888   0.973   0.934   0.952   0.991   1.086   0.874   1.003   0.922   0.981   1.086   1.089   0.999   1.045   1.024
   261.00    0.974   1.015   0.952   1.002   0.858   0.818   0.884   1.030   0.960   0.903   0.937   0.895   0.977   1.110   1.107   1.006   0.973   0.869   0.977   0.962   1.009   0.909   0.830   0.996   1.028   0.960   0.950   1.043   1.044   1.020   1.064   0.987   0.927   0.884   0.923   1.003   1.100   1.026   0.999   1.021   0.993
   251.00    0.999   0.975   1.039   0.959   0.889   0.917   0.829   0.986   0.899   0.866   0.896   0.974   1.077   1.157   1.020   0.946   0.869   0.937   1.016   0.977   0.956   0.954   0.915   0.994   0.937   0.970   1.015   0.961   0.978   0.968   1.067   1.040   0.841   0.953   0.961   0.933   1.037   1.034   0.997   0.982   0.902
   241.00    0.969   1.035   1.096   1.052   1.058   0.882   0.837   0.904   0.879   0.847   0.938   0.957   1.051   1.042   1.008   0.939   0.929   0.918   0.976   0.971   0.872   0.876   0.937   0.910   0.869   0.937   0.951   0.934   1.090   1.009   1.036   0.986   0.903   1.007   0.996   0.973   0.939   0.986   0.945   0.956   0.989
   231.00    0.925   0.985   1.019   0.953   1.018   0.902   0.808   0.852   0.918   0.869   0.891   1.003   1.063   1.063   0.905   1.011   0.853   1.082   0.974   0.998   0.922   0.828   0.795   0.886   0.896   0.951   0.931   0.923   1.043   1.007   1.073   1.002   0.983   1.001   0.971   1.060   1.014   0.973   0.992   0.981   0.964
   221.00    0.853   0.971   0.959   0.850   0.915   0.957   0.820   0.821   0.858   0.988   1.070   0.923   0.982   1.040   0.932   1.036   1.037   1.019   0.938   1.021   0.944   0.810   0.895   0.894   0.941   0.940   0.902   0.900   0.916   0.919   0.941   0.953   0.888   1.039   0.977   0.987   1.067   1.016   1.027   1.066   0.957
   211.00    1.015   1.005   0.817   0.829   0.888   0.900   0.921   0.784   0.866   0.928   1.063   0.977   1.066   1.103   1.001   1.003   1.077   1.114   0.904   0.915   0.968   0.975   0.870   0.842   0.794   0.869   0.895   0.845   0.936   0.920   1.003   0.884   0.906   1.002   0.948   1.078   1.067   1.142   1.026   0.974   0.879
   201.00    0.977   0.896   0.823   0.884   0.832   0.906   0.934   0.832   0.804   0.895   0.996   0.961   1.046   0.993   1.025   1.016   1.025   1.090   0.939   0.952   1.009   0.995   0.767   0.898   0.885   0.891   1.004   0.904   0.952   0.977   1.062   1.065   1.014   0.970   1.005   1.157   1.145   1.122   0.964   0.974   0.858
   191.00    1.036   0.827   0.942   0.926   0.906   0.924   0.927   0.865   0.862   0.862   0.998   0.973   1.053   0.992   0.994   0.878   0.995   1.035   0.890   0.946   0.958   0.929   0.773   0.879   0.931   0.973   0.955   0.956   0.913   1.054   1.140   1.091   1.032   0.968   1.081   1.129   1.120   1.086   0.956   1.047   0.927
   181.00    0.960   0.915   1.007   0.859   0.891   0.879   0.886   0.808   0.891   0.919   0.992   0.997   0.907   0.929   0.938   0.964   0.921   0.937   0.929   0.965   0.945   0.902   0.865   0.924   1.031   1.105   0.985   0.857   0.854   0.886   1.017   1.017   0.980   0.976   0.981   1.085   1.088   1.057   1.049   1.058   0.976
   171.00    0.885   0.853   0.911   0.881   0.927   0.937   0.874   0.808   0.886   0.970   0.938   1.051   0.928   0.897   0.839   0.943   0.827   0.922   0.882   0.915   1.001   0.962   0.988   1.106   1.094   1.081   0.954   0.982   0.918   0.902   0.955   1.015   1.021   0.963   1.027   1.003   0.994   1.043   1.098   1.143   1.055
   161.00    0.951   0.846   0.823   0.852   0.857   0.937   0.845   0.883   0.909   0.960   0.911   1.036   0.965   0.807   0.864   0.854   0.973   0.955   0.930   0.851   1.004   1.070   1.032   1.061   1.082   1.075   0.926   0.973   0.931   0.939   1.030   1.061   1.034   0.859   1.002   1.020   1.015   0.940   1.016   0.962   1.002
   151.00    0.953   0.963   0.798   0.857   0.766   0.880   0.962   0.971   0.875   0.963   0.875   0.930   0.905   0.979   0.899   0.899   0.919   0.979   0.920   0.936   0.994   1.041   1.085   0.965   1.028   0.975   0.992   0.960   0.923   0.908   1.017   1.081   1.019   0.909   0.868   0.884   0.923   0.990   0.987   0.889   0.964
   141.00    0.985   0.935   0.901   0.833   0.844   0.912   0.951   1.000   0.953   0.913   0.812   0.830   0.891   0.885   0.870   0.842   0.910   0.838   0.954   0.863   0.989   0.946   1.043   0.998   0.942   0.969   0.935   0.970   0.983   0.971   1.007   1.058   1.011   0.878   0.923   0.898   0.816   0.936   1.033   0.892   0.942
   131.00    1.006   0.947   0.958   0.894   0.906   0.868   0.911   1.020   0.938   0.946   0.880   0.971   0.958   0.928   0.892   0.869   0.843   0.872   0.952   0.879   0.919   0.966   0.953   0.943   0.915   0.931   0.869   0.897   0.906   0.930   0.971   0.992   1.036   1.109   1.047   0.982   0.809   0.947   1.038   0.967   0.986
   121.00    1.040   1.045   1.024   0.922   0.911   0.897   0.905   1.062   1.075   0.974   1.012   1.002   0.987   0.928   0.831   0.968   0.948   0.869   0.890   0.921   1.077   1.130   1.049   0.987   0.930   0.955   0.979   0.871   0.851   0.829   0.920   0.936   1.043   1.043   1.031   1.020   0.914   1.003   1.048   1.088   0.889
   111.00    1.021   1.095   1.047   1.001   0.910   0.958   0.982   1.063   1.008   0.865   1.051   1.048   0.972   0.934   0.812   0.976   0.889   0.921   0.886   0.954   1.071   1.096   1.053   0.956   0.967   1.028   0.958   0.888   0.940   0.852   0.854   1.001   1.054   0.981   0.970   0.911   0.885   1.024   0.958   1.057   0.934
   101.00    1.158   1.069   0.984   1.071   0.970   0.869   0.924   0.918   0.851   0.908   0.995   1.036   1.031   1.018   0.867   0.970   1.020   0.890   0.968   0.999   1.008   0.976   0.970   0.854   0.963   0.913   0.916   0.960   0.943   0.948   0.988   0.981   1.020   1.001   0.911   0.879   0.911   1.000   0.925   1.065   1.022
    91.00    1.038   0.964   0.995   0.976   0.965   0.949   0.908   0.907   0.903   0.944   1.008   0.973   1.012   0.961   0.803   1.028   1.073   0.945   0.987   0.912   0.905   0.981   0.912   0.912   0.916   0.925   0.865   0.898   0.947   0.954   1.076   0.962   1.055   0.966   0.969   0.921   0.861   0.986   0.954   1.082   1.093
    81.00    0.945   1.020   0.999   1.028   1.097   0.876   0.904   0.889   0.937   0.917   0.916   0.988   0.915   0.911   0.908   0.877   1.011   0.933   1.067   1.008   0.916   0.925   0.891   0.837   0.944   0.939   0.964   0.920   1.087   1.097   1.075   1.113   0.995   0.912   0.921   0.882   0.864   0.855   0.970   1.097   1.052
    71.00    0.949   0.874   1.022   0.995   0.933   0.969   1.029   0.978   0.928   0.925   0.902   0.967   0.877   0.888   0.845   0.907   0.968   1.003   1.064   0.958   0.914   0.954   0.863   0.864   0.867   0.929   0.923   0.922   1.021   1.061   1.050   1.014   0.963   1.025   0.924   0.909   0.811   0.837   0.958   0.982   1.030
    61.00    0.902   0.997   0.929   0.954   0.968   0.995   1.019   1.003   0.912   0.843   0.787   0.859   0.862   0.859   0.876   0.850   0.964   1.019   0.978   0.998   0.998   0.968   0.984   0.876   0.800   0.929   0.930   1.007   1.089   1.079   0.995   0.984   0.986   1.080   0.969   0.914   0.818   0.851   1.006   1.038   0.982
    51.00    0.981   0.967   0.893   0.892   0.878   0.918   0.994   0.973   0.819   0.925   0.810   0.823   0.888   0.902   0.898   0.812   0.940   0.936   0.940   0.950   1.083   0.961   1.011   0.899   0.891   0.872   0.929   1.012   1.069   1.015   0.922   0.949   1.011   1.069   1.011   0.993   0.970   0.856   0.915   0.968   0.954
    41.00    0.945   0.979   0.952   0.884   0.916   0.941   0.899   0.909   0.874   0.888   0.843   0.873   0.901   0.939   1.007   0.880   0.916   0.886   0.977   1.018   1.060   0.982   1.014   0.995   0.891   0.851   0.959   0.969   1.003   0.904   0.962   0.865   0.973   0.972   1.004   0.941   0.992   0.962   1.000   0.965   1.018
    31.00    0.920   0.967   0.935   0.896   0.878   0.839   0.922   0.841   0.845   0.818   0.811   0.898   0.900   0.935   0.904   0.894   0.907   0.915   0.935   0.996   1.057   1.075   0.979   1.135   0.969   0.895   0.897   1.014   0.934   1.039   0.984   0.988   1.133   1.127   1.023   0.930   0.977   1.055   1.031   0.910   0.983
    21.00    1.018   0.957   0.957   0.996   0.964   0.819   0.848   0.800   0.781   0.863   0.824   0.883   0.787   0.912   0.872   0.937   0.862   0.870   0.980   1.075   1.108   1.072   1.150   1.114   0.968   0.944   0.993   1.043   0.959   0.986   0.983   1.037   1.057   1.130   1.054   0.880   0.905   0.995   0.894   0.925   0.957
    11.00    0.999   0.935   0.882   0.974   0.954   0.901   0.823   0.875   0.849   0.907   0.922   0.891   0.852   0.868   0.866   0.866   0.902   0.839   1.003   1.055   1.033   0.991   1.068   1.047   1.011   0.979   1.007   0.914   0.931   0.966   1.016   1.039   0.971   1.087   0.968   0.901   0.944   0.967   0.951   0.939   0.904
     1.00    0.974   0.964   0.996   0.977   1.018   0.892   0.886   0.873   0.983   0.956   0.961   0.925   0.809   0.888   0.896   0.893   0.935   0.829   0.886   1.078   0.973   0.995   1.028   1.052   0.997   1.031   1.015   0.967   0.911   0.976   1.043   1.110   1.084   1.033   1.035   0.918   0.998   0.999   0.947   0.945   0.896

   Height   Standard deviation at grid points for the w component:
   301.00    1.002   0.921   0.876   0.946   0.923   0.955   0.906   0.975   0.915   1.062   0.982   0.907   1.009   0.981   0.986   0.926   0.984   0.985   1.141   1.144   1.010   0.999   0.919   0.959   0.926   0.872   0.889   0.875   0.928   0.970   1.009   0.991   1.066   0.984   0.964   0.898   0.873   0.931   0.861   0.918   1.004
   291.00    0.967   0.883   0.923   0.858   0.910   0.960   0.871   0.816   0.976   0.997   0.963   0.901   1.039   0.899   0.917   0.928   0.911   0.894   1.026   1.072   0.983   0.894   0.879   0.992   0.903   0.955   0.865   0.888   1.006   0.889   1.020   1.090   1.042   1.009   1.034   0.970   0.934   0.930   0.875   0.878   0.959
   281.00    0.963   1.018   0.897   0.996   0.927   0.977   0.858   0.819   1.052   0.959   1.080   1.028   1.007   0.856   0.837   0.821   0.931   0.893   0.936   0.948   0.979   0.910   0.831   0.873   0.995   0.927   0.868   0.866   0.903   0.975   1.079   1.032   0.943   0.926   0.957   1.000   0.899   0.870   0.806   0.893   0.979
   271.00    0.943   0.949   0.981   1.029   1.038   1.033   0.858   1.021   0.988   1.032   1.072   1.019   0.930   0.868   0.890   0.805   0.914   0.896   0.898   0.946   0.918   0.885   0.934   0.896   0.997   0.935   0.853   0.913   0.884   0.942   0.966   0.941   1.002   0.927   0.872   0.918   0.843   0.901   0.985   0.905   0.996
   261.00    0.911   0.852   0.909   1.048   1.054   1.024   0.877   1.038   1.004   1.066   1.016   1.012   0.945   0.846   0.820   0.904   0.834   0.868   0.930   1.015   0.921   0.880   0.978   0.969   0.928   0.930   0.985   0.946   0.893   0.990   0.886   1.035   1.010   1.002   0.834   0.800   0.957   0.989   0.898   0.956   0.921
   251.00    0.945   0.954   0.878   1.070   1.017   1.055   0.964   1.060   0.964   1.006   1.084   1.048   1.013   0.909   0.892   0.774   0.844   0.911   0.902   1.065   0.895   0.961   1.024   1.019   0.901   0.930   1.011   0.928   0.977   0.984   0.996   0.956   1.054   1.094   0.989   0.879   0.981   0.920   0.871   1.012   0.992
   241.00    1.024   0.926   1.047   0.982   1.034   0.890   0.919   1.101   0.956   1.020   0.996   1.136   1.092   0.979   0.922   0.916   0.925   0.955   1.045   1.020   0.970   0.996   1.076   0.927   0.947   1.108   1.030   1.022   0.961   0.977   1.034   0.974   1.063   1.044   0.926   0.900   1.003   0.936   0.966   1.029   1.029
   231.00    1.077   1.023   1.007   0.944   0.948   0.939   0.942   0.951   0.929   0.973   0.953   1.039   1.138   0.938   0.920   0.928   0.901   0.905   0.994   0.969   0.877   0.897   0.946   0.983   0.896   0.993   1.061   0.941   0.979   1.060   0.976   0.950   0.989   0.986   0.875   0.815   0.889   1.062   0.954   0.891   0.980
   221.00    1.058   1.082   0.979   0.954   0.928   0.921   0.880   0.872   0.871   0.797   0.888   0.892   1.038   1.036   0.951   0.990   0.887   0.867   0.992   0.962   0.975   0.938   0.956   1.036   0.966   0.968   1.026   0.998   1.012   1.007   0.997   0.957   0.934   0.933   0.925   0.839   0.885   0.992   0.979   0.863   1.011
   211.00    1.094   1.141   0.967   0.891   0.847   0.830   0.973   0.927   0.909   0.850   0.866   0.885   1.119   1.133   1.103   1.049   0.840   0.890   0.943   0.985   0.964   0.958   0.993   1.084   1.070   1.000   1.054   0.997   1.035   1.041   1.060   1.067   0.934   0.844   0.902   0.799   0.873   0.944   0.908   0.886   0.885
   201.00    1.024   1.152   1.001   0.804   0.937   0.904   0.904   0.972   1.003   0.966   0.956   0.884   1.129   1.127   1.085   1.029   0.863   0.854   1.030   1.089   0.979   0.963   0.998   1.133   0.997   1.038   1.027   0.983   0.975   1.048   1.054   1.100   0.976   0.850   0.876   0.789   0.860   0.932   1.001   0.990   0.970
   191.00    0.996   1.041   0.925   0.874   0.952   0.922   0.960   0.997   0.856   0.890   0.931   0.985   1.107   1.120   1.058   0.984   0.947   0.943   1.038   0.961   1.024   1.078   1.060   1.070   1.097   1.127   1.134   1.011   0.942   1.052   1.005   1.071   1.105   1.006   0.926   0.858   0.862   0.994   1.035   1.021   0.983
   181.00    1.071   1.059   1.076   1.087   0.920   0.922   0.927   0.936   0.934   0.895   0.905   1.031   1.115   1.129   1.001   0.952   0.940   0.918   0.985   0.975   1.026   1.121   1.187   1.189   1.215   1.133   1.162   0.971   0.968   1.098   1.147   1.115   1.067   1.013   0.910   0.835   0.933   0.876   0.962   0.962   0.935
   171.00    1.066   1.044   1.036   1.070   1.011   0.919   0.845   0.885   1.009   0.921   0.957   1.138   1.068   1.094   0.971   0.976   0.948   0.978   1.030   0.967   1.032   1.220   1.178   1.219   1.170   1.121   1.096   0.979   0.973   1.120   1.137   1.138   1.025   1.128   0.916   0.917   0.969   0.946   0.866   1.010   0.940
   161.00    1.157   1.033   1.104   1.047   1.052   0.979   0.910   0.933   0.942   0.902   0.980   1.041   1.029   0.958   0.984   0.944   0.905   1.097   0.952   0.882   1.029   1.109   1.226   1.064   1.160   1.074   0.998   1.015   0.966   0.995   1.097   1.082   1.152   1.056   1.001   0.953   0.925   0.944   0.872   0.940   0.935
   151.00    1.012   1.086   1.103   1.042   0.942   0.901   0.982   0.912   0.884   0.910   0.884   0.959   1.030   1.004   1.020   0.985   1.074   1.121   0.877   0.959   1.055   1.103   1.133   1.065   1.100   1.030   0.946   1.027   1.025   1.062   1.086   1.130   1.134   1.185   1.052   0.878   0.843   0.871   0.794   0.878   0.888
   141.00    1.052   1.101   1.097   1.089   1.065   0.955   1.024   1.019   0.851   0.949   0.905   0.994   0.923   1.015   1.019   0.938   1.060   1.093   0.879   1.040   1.147   1.142   1.118   1.090   1.121   0.997   0.936   1.017   1.046   1.026   1.077   1.001   1.040   1.113   1.042   0.887   0.927   0.943   0.792   0.905   0.807
   131.00    0.992   1.054   0.940   1.059   1.101   1.087   1.012   0.949   0.857   0.866   0.984   0.960   1.033   1.002   1.042   0.854   1.130   0.968   1.009   0.972   1.082   1.078   1.059   1.010   1.032   0.908   0.923   1.078   1.024   1.083   1.014   1.017   0.905   0.955   0.918   0.940   0.930   0.909   0.924   0.934   0.879
   121.00    0.977   0.968   0.918   1.026   1.007   0.991   1.006   0.897   0.829   0.880   0.979   0.912   1.080   0.981   1.040   1.001   1.083   1.066   0.928   1.031   1.057   1.046   0.990   1.010   1.013   0.928   0.917   1.067   1.041   0.961   0.880   0.976   0.881   0.952   0.923   0.923   0.939   0.922   0.990   0.917   0.865
   111.00    0.962   0.936   0.874   0.962   1.016   0.919   0.913   0.858   0.878   0.937   0.860   0.945   0.986   0.947   0.969   1.011   1.022   0.967   0.974   0.961   1.047   1.128   0.988   0.973   1.024   1.001   0.949   0.924   1.021   1.035   0.932   0.999   0.934   0.940   1.024   1.053   1.007   0.950   1.095   0.950   0.987
   101.00    0.898   0.951   0.970   0.918   0.811   0.863   0.927   0.919   0.876   0.817   0.894   0.946   0.929   0.938   0.914   1.063   1.091   1.024   0.991   1.004   0.995   1.038   1.001   0.966   1.089   1.058   0.947   0.951   1.078   1.162   1.078   1.126   0.962   0.983   1.088   1.112   1.062   1.023   0.987   0.989   0.962
    91.00    0.843   0.920   0.993   0.970   0.893   0.837   0.924   0.933   1.009   1.027   0.913   0.917   0.918   0.921   0.990   1.059   1.023   0.966   0.941   0.921   0.974   1.060   1.070   0.968   1.019   0.968   0.947   0.987   1.074   1.172   1.080   1.061   0.856   0.973   1.067   1.142   1.082   1.053   1.008   1.019   0.989
    81.00    0.963   0.933   0.939   0.949   0.978   0.912   0.919   0.989   1.062   1.022   0.857   0.926   0.917   0.992   0.984   1.036   1.020   1.010   0.962   0.882   0.926   1.049   1.032   1.117   1.094   1.024   0.906   0.962   1.039   1.091   1.065   0.985   0.877   0.953   1.028   1.104   1.135   1.041   1.002   0.982   0.963
    71.00    0.921   0.841   0.881   0.857   0.878   0.900   0.882   0.879   0.925   1.042   0.857   0.960   0.946   0.927   0.919   0.953   0.950   0.941   0.957   0.963   0.912   0.983   0.995   1.146   1.156   0.934   0.940   0.970   1.030   1.079   1.028   1.010   0.959   0.964   0.954   1.044   1.065   1.072   1.024   0.940   0.932
    61.00    0.970   0.885   1.000   1.028   0.846   0.889   0.908   0.854   0.889   0.951   0.920   0.915   0.942   0.897   0.885   0.954   0.946   0.948   0.920   0.922   0.859   1.014   0.949   1.094   1.130   0.939   0.971   1.076   1.029   1.004   1.076   1.011   1.048   1.100   1.033   0.996   0.969   1.060   1.019   0.937   0.936
    51.00    1.035   0.864   0.969   0.968   0.908   0.898   0.933   0.948   0.917   0.829   0.950   0.898   0.990   0.919   0.899   0.937   0.935   0.934   0.898   0.822   0.934   1.022   1.001   1.035   0.979   0.929   1.027   1.089   1.005   0.955   1.051   1.040   1.125   1.052   0.985   0.893   1.053   0.930   1.019   0.918   1.021
    41.00    1.080   0.957   0.934   0.879   0.857   0.889   0.977   0.901   0.815   0.866   0.954   0.872   0.969   0.987   0.898   1.007   0.905   0.881   0.971   0.955   0.874   0.921   0.954   0.922   0.929   0.991   1.013   1.103   1.079   0.992   0.994   1.088   1.078   1.004   1.029   0.914   1.013   0.943   0.881   0.930   0.987
    31.00    1.070   0.929   0.906   0.919   0.864   0.917   0.858   0.881   0.838   0.880   0.992   0.959   0.943   1.015   0.961   1.059   1.018   1.018   0.960   0.926   0.923   0.908   0.892   0.923   0.956   0.919   1.059   1.086   0.982   0.940   0.937   1.058   0.903   0.944   1.061   1.027   1.064   0.852   0.939   0.881   1.008
    21.00    0.997   0.925   0.947   1.005   0.895   0.848   0.846   0.851   0.780   0.891   0.940   0.912   0.907   1.031   1.007   1.012   1.026   0.993   0.922   0.941   0.996   0.869   0.967   0.981   0.983   0.978   0.942   1.032   1.062   1.051   0.977   0.972   0.938   1.016   0.974   0.993   1.041   0.913   0.965   1.026   0.917
    11.00    0.968   1.028   1.034   1.002   0.847   0.933   0.929   0.821   0.850   0.866   0.916   0.968   1.005   1.008   1.014   0.919   1.047   0.926   1.058   1.012   1.032   0.932   0.990   1.058   1.003   0.992   0.910   1.015   0.969   1.008   0.940   0.852   0.945   0.960   0.905   1.020   0.938   1.022   1.066   1.000   0.964
     1.00    0.974   1.087   0.987   1.066   0.942   0.906   0.842   0.807   0.871   0.845   0.962   0.928   0.956   1.006   0.988   0.923   1.033   0.929   1.038   1.069   0.984   1.022   1.030   1.024   1.032   1.015   0.899   0.969   1.013   1.022   0.931   0.881   0.897   1.042   0.909   0.994   1.004   0.996   1.071   1.013   0.948

   Mean standard deviation across all grid points:
      u component:    0.969 m/s
      v component:    0.956 m/s
      w component:    0.974 m/s


U-component (X) statistics from the interpolated hub point:

   Mean =  10.0066 m/s
   TI   =   8.3012 %


Processing complete.  9.1562 CPU seconds used.
