
This summary file was generated by TurbSim (from OpenFAST-v3.4.1) on 25-Nov-2024 at 22:21:37.


Runtime Options:

      2030  Random seed #1
         0  Random seed #2
         F  Output binary HH turbulence parameters?
         F  Output formatted turbulence parameters?
         F  Output AeroDyn HH files?
         T  Output AeroDyn FF files?
         F  Output BLADED FF files?
         F  Output tower data?
         F  Output HAWC FF files?
         F  Output formatted FF files?
         T  Output coherent turbulence time step file?
 0 -  NONE  IEC turbulence models scaled to exact specified standard deviation


Turbine/Model Specifications:

        31  Vertical grid-point matrix dimension
        41  Horizontal grid-point matrix dimension
     0.100  Time step [seconds]
   200.000  Analysis time [seconds]
   200.000  Usable output time [seconds]
   151.000  Hub height [m]
   300.000  Grid height [m]
   600.000  Grid width [m]
     0.000  Vertical flow angle [degrees]
     0.000  Horizontal flow angle [degrees]


Meteorological Boundary Conditions:

    IECVKM  IEC von Karman spectral model
         1  IEC standard: IEC 61400-1 Ed. 2: 1999
    10.000  Percent turbulence intensity, IEC 61400-1 Ed. 2: 1999
       NTM  IEC Normal Turbulence Model
       N/A  IEC Extreme Turbulence Model (ETM) "c" parameter [m/s]
       PL   Wind profile type
   150.000  Reference height [m]
    10.000  Reference wind speed [m/s]
       N/A  Jet height [m]
     0.100  Power law exponent
     0.030  Surface roughness length [m]


Non-IEC Meteorological Boundary Conditions:

       N/A  Site latitude [degrees]
       N/A  Gradient Richardson number
       N/A  Friction or shear velocity [m/s]
       N/A  Mixing layer depth [m]
       N/A  Mean hub u'w' Reynolds stress
       N/A  Mean hub u'v' Reynolds stress
       N/A  Mean hub v'w' Reynolds stress


Spatial Coherence Models:

       IEC  u-component coherence model
       IEC  v-component coherence model
       IEC  w-component coherence model
(   12.000, 0.659E-03)  u-component coherence parameters
(   12.000, 0.659E-03)  v-component coherence parameters
(   12.000, 0.659E-03)  w-component coherence parameters
       N/A  Coherence exponent


You have requested that the following file(s) be generated:

   ./TurbulentWind_20WT/FOWTs/Wind\InflowWind_High_WT6.bts (AeroDyn/TurbSim full-field wind file)


Turbulence Simulation Scaling Parameter Summary:

   Turbulence model used                            =  IEC von Karman
   Turbulence characteristic                        =  User-specified
   IEC standard                                     =  IEC 61400-1 Ed. 2: 1999
   Mean wind speed at hub height                    =   10.007 m/s
   Characteristic value of standard deviation       =    1.001 m/s
   Turbulence scale                                 =   21.000 m
   Isotropic integral scale                         =   73.500 m
   Characteristic value of hub turbulence intensity =   10.000%
   Gradient Richardson number                       =    0.000

   Wind profile type                                =  Power law
   Power law exponent                               =    0.100
   Mean shear across rotor disk                     =    0.016 (m/s)/m
   Assumed rotor diameter                           =  300.000 m
   Surface roughness length                         =    0.030 m

   Nyquist frequency of turbulent wind field        =    5.000 Hz

   Number of time steps in the FFT                  =     2600
   Number of time steps output                      =     2600
   Number of points simulated                       =     1271


Mean Flow Angles:

   Vertical   =   0.0 degrees
   Horizontal =   0.0 degrees

Mean Wind Speed Profile:

   Height    Wind Speed   Horizontal Angle  Vertical Angle  U-comp (X)   V-comp (Y)   W-comp (Z)
     (m)        (m/s)         (degrees)       (degrees)       (m/s)        (m/s)        (m/s)   
   ------    ----------   ----------------  --------------  ----------   ----------   ----------
    301.0       10.72            0.00            0.00         10.72         0.00         0.00
    291.0       10.69            0.00            0.00         10.69         0.00         0.00
    281.0       10.65            0.00            0.00         10.65         0.00         0.00
    271.0       10.61            0.00            0.00         10.61         0.00         0.00
    261.0       10.57            0.00            0.00         10.57         0.00         0.00
    251.0       10.53            0.00            0.00         10.53         0.00         0.00
    241.0       10.49            0.00            0.00         10.49         0.00         0.00
    231.0       10.44            0.00            0.00         10.44         0.00         0.00
    221.0       10.40            0.00            0.00         10.40         0.00         0.00
    211.0       10.35            0.00            0.00         10.35         0.00         0.00
    201.0       10.30            0.00            0.00         10.30         0.00         0.00
    191.0       10.24            0.00            0.00         10.24         0.00         0.00
    181.0       10.19            0.00            0.00         10.19         0.00         0.00
    171.0       10.13            0.00            0.00         10.13         0.00         0.00
    161.0       10.07            0.00            0.00         10.07         0.00         0.00
    151.0       10.01            0.00            0.00         10.01         0.00         0.00
    141.0        9.94            0.00            0.00          9.94         0.00         0.00
    131.0        9.87            0.00            0.00          9.87         0.00         0.00
    121.0        9.79            0.00            0.00          9.79         0.00         0.00
    111.0        9.70            0.00            0.00          9.70         0.00         0.00
    101.0        9.61            0.00            0.00          9.61         0.00         0.00
     91.0        9.51            0.00            0.00          9.51         0.00         0.00
     81.0        9.40            0.00            0.00          9.40         0.00         0.00
     71.0        9.28            0.00            0.00          9.28         0.00         0.00
     61.0        9.14            0.00            0.00          9.14         0.00         0.00
     51.0        8.98            0.00            0.00          8.98         0.00         0.00
     41.0        8.78            0.00            0.00          8.78         0.00         0.00
     31.0        8.54            0.00            0.00          8.54         0.00         0.00
     21.0        8.22            0.00            0.00          8.22         0.00         0.00
     11.0        7.70            0.00            0.00          7.70         0.00         0.00
      1.0        6.06            0.00            0.00          6.06         0.00         0.00


Harvested Random Seeds after Generation of the Random Numbers:

    885734315 Harvested seed # 1
   1971657505 Harvested seed # 2


Hub-Height Simulated Turbulence Statistical Summary:

   Type of Wind        Min (m/s)   Mean (m/s)    Max (m/s)  Sigma (m/s)       TI (%)
   ----------------    ---------   ----------    ---------  -----------       ------
   Longitudinal (u)         7.43        10.01        13.18        1.060       10.594
   Lateral (v)             -2.61         0.00         2.37        0.885        8.842
   Vertical (w)            -2.75         0.00         2.86        0.908        9.076
   U component              7.43        10.01        13.18        1.060       10.594
   V component             -2.61         0.00         2.37        0.885        8.842
   W component             -2.75         0.00         2.86        0.908        9.076
   Horizontal (U&V)         7.48        10.05        13.25        1.059       10.544
   Total                    7.48        10.09        13.36        1.067       10.579

                       Min Reynolds     Mean Reynolds    Max Reynolds    Correlation
   Product             Stress (m/s)^2   Stress (m/s)^2   Stress (m/s)^2  Coefficient
   ----------------    --------------   --------------   --------------  -----------
   u'w'                     -4.106             0.145             6.129         0.150
   u'v'                     -3.662            -0.018             4.331        -0.019
   v'w'                     -5.093             0.079             4.364         0.099


   Friction Velocity (Ustar)  =      0.381 m/s
   Maximum Instantaneous TKE  =      7.334 (m/s)^2
   Maximum Instantaneous CTKE =      3.810 (m/s)^2


Grid Point Variance Summary:

   Y-coord -300.00 -285.00 -270.00 -255.00 -240.00 -225.00 -210.00 -195.00 -180.00 -165.00 -150.00 -135.00 -120.00 -105.00  -90.00  -75.00  -60.00  -45.00  -30.00  -15.00    0.00   15.00   30.00   45.00   60.00   75.00   90.00  105.00  120.00  135.00  150.00  165.00  180.00  195.00  210.00  225.00  240.00  255.00  270.00  285.00  300.00

   Height   Standard deviation at grid points for the u component:
   301.00    0.846   0.873   0.950   1.198   1.171   1.023   0.973   0.998   1.007   1.087   0.942   0.937   1.049   0.992   1.060   0.986   0.892   0.827   0.883   0.956   0.925   0.844   0.925   0.982   0.917   1.018   1.126   1.180   1.088   1.039   0.845   0.782   0.837   0.784   0.856   0.768   0.795   0.924   1.055   1.009   0.920
   291.00    0.759   0.821   0.965   1.093   1.030   1.091   1.036   0.953   0.982   0.960   0.989   1.074   1.068   1.025   0.999   1.100   0.904   0.902   0.905   0.993   0.871   0.901   0.924   0.863   0.943   0.993   1.039   1.138   1.112   0.932   0.961   0.856   0.802   0.805   0.815   0.789   0.822   0.896   0.946   0.992   0.920
   281.00    0.818   0.891   0.990   1.039   1.131   1.004   1.048   0.981   0.966   0.882   1.010   1.014   0.977   1.016   1.092   1.026   1.091   0.769   0.750   0.942   0.937   0.925   0.924   0.878   0.782   0.964   1.002   1.028   1.076   0.990   0.835   0.841   0.934   0.883   0.820   0.830   0.816   0.933   0.910   0.921   0.927
   271.00    0.987   1.048   1.032   1.105   1.062   1.074   1.153   0.945   0.925   1.005   0.937   0.890   0.986   0.979   1.011   0.919   0.969   0.907   0.847   0.866   0.794   0.923   0.993   0.927   0.761   0.902   1.020   0.938   0.971   0.883   0.830   0.889   0.999   0.958   0.924   0.753   0.809   0.974   0.924   0.931   0.880
   261.00    1.047   1.029   1.083   1.048   1.022   0.929   1.067   0.941   0.994   0.983   1.008   0.867   0.986   1.032   0.958   0.827   0.846   0.848   0.936   0.915   0.886   0.901   1.016   1.008   0.904   0.865   0.960   1.022   0.867   0.903   0.875   0.851   0.940   0.953   0.954   0.893   0.833   0.921   0.839   0.878   0.869
   251.00    0.985   0.930   0.904   0.986   1.084   0.982   0.967   1.028   0.994   0.971   0.857   0.921   1.033   1.001   1.017   0.873   0.879   0.861   0.963   0.904   0.859   0.928   1.009   1.030   0.911   0.985   0.924   0.876   0.890   0.964   0.901   0.844   0.985   0.938   0.963   0.864   0.798   0.832   0.874   0.919   0.871
   241.00    0.990   0.881   0.930   0.870   0.957   0.875   0.972   1.030   0.905   0.899   0.861   0.774   0.949   0.904   0.904   0.952   0.938   0.833   0.927   0.935   1.076   1.136   1.022   1.039   1.166   1.039   0.933   0.965   0.832   0.949   0.945   0.938   0.949   0.819   0.896   0.991   0.837   0.974   0.819   0.897   0.873
   231.00    0.926   0.811   0.786   0.826   0.877   0.937   1.000   0.888   0.907   0.859   0.806   0.852   1.006   1.003   0.826   0.990   0.988   0.820   0.915   0.886   1.108   1.093   1.109   1.082   1.131   1.136   0.977   0.967   0.962   0.875   0.868   0.859   0.884   0.848   0.928   0.959   0.891   0.853   0.880   0.825   0.764
   221.00    0.873   0.806   0.783   0.855   0.871   0.919   0.947   0.928   0.878   0.893   0.838   0.857   0.983   1.025   1.030   1.010   1.084   0.951   1.115   1.088   1.055   1.147   1.097   1.021   1.093   1.151   0.934   0.834   0.884   0.916   0.842   0.861   0.840   0.844   1.004   0.979   0.898   0.832   0.825   0.732   0.781
   211.00    0.887   0.883   0.898   0.856   0.821   0.948   0.897   0.980   0.820   0.858   0.775   0.807   1.095   1.033   1.176   1.145   1.071   0.996   1.067   1.118   1.000   1.127   1.008   1.007   0.970   1.098   0.920   0.881   0.872   0.793   0.861   0.895   0.863   0.906   0.919   1.017   0.980   0.884   0.860   0.738   0.751
   201.00    0.889   0.924   0.952   0.815   0.748   0.844   0.816   0.809   0.974   0.902   0.841   0.843   1.071   1.205   1.204   1.098   1.019   0.879   1.059   1.058   0.983   1.041   1.025   0.951   0.991   1.049   1.015   0.988   0.928   0.848   0.861   0.822   0.840   0.946   0.993   1.029   1.023   0.980   0.870   0.808   0.808
   191.00    0.914   0.937   0.874   0.848   0.943   0.849   0.890   0.948   1.056   0.978   1.045   0.941   1.021   1.145   1.137   1.130   1.056   0.860   1.007   0.984   1.025   0.969   1.064   0.967   1.051   1.061   1.021   1.098   0.975   0.901   0.818   0.840   0.926   1.013   1.080   0.998   1.013   0.953   0.861   0.827   0.886
   181.00    0.903   0.940   0.866   0.731   0.833   0.810   0.896   0.976   0.955   1.042   1.008   0.938   1.016   1.028   1.121   1.059   1.029   1.019   0.981   0.986   1.144   1.110   1.023   1.007   1.086   1.026   1.043   1.006   0.989   0.954   0.846   0.901   0.903   0.987   1.061   0.973   1.014   0.894   0.897   0.822   0.865
   171.00    1.014   0.867   0.860   0.766   0.845   0.780   0.925   0.928   0.963   1.063   0.931   0.916   1.015   1.097   1.062   1.127   1.112   0.973   0.853   0.985   1.093   1.060   1.097   0.962   0.884   0.949   1.007   0.957   0.897   0.872   0.841   0.945   1.006   1.040   1.070   1.146   1.046   1.027   0.959   0.798   0.931
   161.00    0.902   0.944   0.888   0.802   0.847   0.897   0.948   0.991   1.009   1.086   1.104   0.994   1.160   1.147   1.078   1.128   1.090   0.986   0.817   0.893   1.012   1.051   1.100   0.964   0.884   0.976   0.936   0.889   0.966   0.976   0.842   0.924   1.015   1.107   1.124   1.029   0.997   0.978   0.981   0.920   0.865
   151.00    0.879   0.879   0.918   0.792   0.891   0.880   0.785   0.887   0.919   0.985   1.053   1.019   1.160   1.191   1.080   1.267   1.077   1.028   0.951   0.908   1.060   1.102   1.040   0.948   0.976   1.061   1.045   0.967   1.104   1.154   1.012   0.916   0.977   1.060   1.093   0.945   0.905   0.918   0.840   0.872   0.993
   141.00    0.945   0.943   0.870   0.762   0.859   0.876   0.828   0.822   0.966   1.050   1.015   1.177   1.046   1.220   1.214   1.175   1.030   1.076   0.955   0.992   1.094   1.022   0.950   0.916   1.034   1.161   1.073   0.950   1.130   1.155   1.038   0.994   0.981   1.055   0.991   0.947   0.944   0.965   0.831   0.961   1.015
   131.00    0.883   0.802   0.791   0.860   0.885   0.880   0.826   0.839   0.980   1.091   1.062   1.186   1.072   1.192   1.177   1.075   1.013   0.903   1.035   1.008   1.070   1.014   0.904   1.013   1.056   1.008   1.078   1.048   1.119   1.123   1.047   1.159   1.037   1.071   1.115   0.971   1.007   1.024   0.912   0.882   0.949
   121.00    0.857   0.832   0.849   0.908   0.877   0.894   0.878   0.939   0.920   0.928   0.984   0.977   0.999   1.076   1.055   0.989   0.940   0.951   0.960   0.913   1.014   1.011   1.016   1.145   1.134   1.189   1.075   1.117   1.157   1.039   1.082   1.121   1.076   1.089   1.079   0.992   1.119   0.976   0.948   0.835   0.948
   111.00    0.845   0.791   0.900   0.949   0.897   0.962   0.989   0.840   0.763   0.844   0.869   0.882   0.900   0.984   0.986   0.911   0.917   0.898   0.958   1.073   0.992   1.020   0.943   1.093   1.080   1.143   1.094   1.163   1.214   1.028   0.957   1.076   1.115   1.174   1.048   1.074   1.110   1.034   1.070   0.897   0.988
   101.00    0.916   0.885   1.051   0.993   0.958   0.954   0.997   0.676   0.828   0.766   0.823   0.903   0.888   0.983   0.930   0.859   1.083   0.986   1.091   1.095   1.050   1.059   1.025   1.050   1.167   1.151   1.155   1.252   1.327   1.113   1.039   1.097   1.116   1.174   1.069   1.051   1.080   1.143   1.094   1.030   1.000
    91.00    0.981   0.971   1.119   1.094   0.983   1.066   0.945   0.883   0.957   0.940   0.894   0.758   0.920   0.918   0.897   1.099   1.107   1.073   1.077   1.134   0.894   0.975   1.119   1.014   1.132   1.235   1.376   1.407   1.419   1.368   1.256   1.156   1.226   1.109   1.030   1.007   1.065   1.117   1.126   1.087   1.165
    81.00    1.020   0.991   1.065   1.133   0.945   0.994   0.966   0.817   0.952   0.873   0.872   0.804   0.914   0.864   1.035   1.070   1.040   0.999   1.113   1.063   0.990   1.052   1.147   1.089   1.247   1.298   1.322   1.426   1.445   1.208   1.250   1.172   1.090   0.938   0.862   0.909   0.984   1.062   1.166   1.183   1.229
    71.00    1.021   1.107   1.064   0.980   0.986   0.985   0.926   0.898   0.978   0.870   0.791   0.894   0.951   1.016   1.011   1.021   0.986   1.044   1.027   0.972   0.917   1.075   1.140   1.091   1.303   1.231   1.132   1.300   1.292   1.181   1.198   1.122   1.004   0.937   1.013   0.975   0.884   1.040   1.187   1.238   1.107
    61.00    1.051   1.178   0.965   0.997   0.974   1.092   0.910   0.918   0.918   0.847   0.962   0.954   0.979   1.003   0.942   1.109   1.068   1.010   0.979   0.966   0.927   1.149   1.134   1.049   1.206   1.197   1.028   1.219   1.152   1.104   1.047   1.119   0.999   1.060   1.059   0.848   1.101   1.011   1.251   1.235   1.077
    51.00    1.126   1.120   1.056   1.127   1.151   1.148   0.871   0.941   0.928   0.953   0.904   1.013   1.191   1.117   0.969   1.101   1.027   1.002   0.849   0.933   1.073   1.100   1.042   1.099   1.080   1.172   1.078   1.137   1.066   1.014   1.105   1.056   1.009   1.070   0.960   1.069   1.146   1.080   1.187   1.053   1.092
    41.00    0.984   1.051   0.966   1.025   1.150   1.072   1.030   0.930   0.927   1.030   0.894   0.865   1.098   1.200   0.989   1.039   0.936   0.890   0.876   0.903   1.023   1.139   0.998   0.972   1.045   1.053   1.044   1.044   1.031   0.996   1.096   1.065   0.984   0.961   1.098   1.074   1.093   1.101   1.143   1.065   0.951
    31.00    1.003   0.963   0.966   0.883   1.019   1.097   1.059   0.962   0.960   0.975   0.892   0.929   0.908   1.108   1.008   0.951   0.913   0.960   0.917   0.981   1.063   1.124   1.019   0.868   0.974   1.064   1.005   0.898   0.950   0.996   1.059   1.140   1.045   0.967   1.052   1.078   1.067   1.053   1.053   1.137   1.097
    21.00    1.072   0.995   0.863   0.847   1.025   1.008   1.014   0.972   0.960   0.984   0.913   0.844   0.964   0.965   1.020   0.911   0.929   0.991   1.045   1.061   0.953   1.074   1.045   0.836   0.970   1.013   1.094   0.954   0.977   0.899   0.968   1.051   1.073   1.060   1.109   1.084   1.071   0.993   0.901   1.091   1.153
    11.00    1.050   1.060   0.854   0.987   0.970   0.936   0.955   0.947   0.975   0.934   0.954   0.877   0.885   0.929   0.837   0.905   0.971   0.981   1.110   0.984   1.013   0.894   1.000   0.947   0.963   1.043   1.068   0.994   0.956   1.057   0.951   0.983   1.085   1.036   1.141   1.130   1.092   1.073   1.010   1.074   1.180
     1.00    0.963   0.968   0.967   0.972   0.929   0.876   0.950   0.978   0.896   0.868   0.900   0.830   0.854   0.883   0.839   0.837   1.018   1.106   1.050   1.046   0.939   0.931   0.996   1.009   1.082   1.038   1.128   1.092   1.024   1.028   0.857   0.941   1.020   1.117   1.114   1.103   1.083   1.133   1.145   1.159   1.184

   Height   Standard deviation at grid points for the v component:
   301.00    0.887   0.899   0.899   0.973   0.860   0.877   1.014   0.929   1.028   0.977   1.108   1.122   1.030   1.034   1.009   0.990   0.985   0.941   0.816   0.839   0.956   0.981   0.938   1.067   1.123   1.123   0.983   0.919   0.966   0.961   0.909   0.945   0.961   0.984   1.095   1.064   1.024   0.969   1.007   1.089   1.023
   291.00    0.945   0.868   0.900   0.849   0.822   0.939   1.014   0.981   1.026   1.022   1.055   1.074   1.033   0.990   1.072   0.951   0.860   0.896   0.822   0.842   0.903   1.023   1.047   1.154   1.119   0.976   0.859   0.967   0.897   0.934   0.923   0.918   0.978   1.001   1.139   1.060   0.980   0.924   0.991   1.048   0.966
   281.00    0.949   0.847   0.824   0.873   0.834   0.902   0.972   1.013   1.086   1.024   0.969   0.975   1.041   1.006   0.992   0.963   0.922   0.837   0.830   0.786   0.936   0.977   0.978   1.111   1.183   1.069   0.933   1.048   0.970   0.929   0.901   0.947   1.017   1.110   1.058   1.008   0.979   0.977   1.072   0.973   0.930
   271.00    0.986   0.811   0.849   0.844   0.866   0.869   0.985   0.931   0.988   1.050   0.926   0.956   0.974   1.021   0.968   0.980   0.846   0.851   0.925   0.843   0.938   0.993   1.087   1.091   1.190   1.163   0.921   0.996   0.856   0.888   0.983   0.978   1.052   1.147   0.979   0.966   0.898   0.957   1.028   0.960   0.895
   261.00    0.918   0.822   0.843   0.929   0.964   0.940   0.917   0.962   0.949   0.967   0.951   1.065   1.085   0.977   0.928   0.910   0.863   0.843   0.934   0.873   0.871   1.001   1.064   0.997   1.138   1.052   1.044   0.984   0.890   0.805   0.969   0.960   1.096   1.079   1.043   0.959   0.926   0.995   1.069   0.995   0.998
   251.00    0.865   0.891   0.916   0.857   0.997   1.007   0.937   0.960   0.981   1.051   1.014   0.953   1.094   0.948   0.981   0.857   0.830   0.841   0.912   0.872   0.860   0.991   1.006   1.045   1.076   0.990   1.003   0.959   0.913   0.886   0.916   0.997   1.016   1.073   1.109   0.976   0.915   1.024   1.042   1.003   0.965
   241.00    0.924   0.974   0.966   1.019   0.872   0.880   0.881   0.944   0.883   0.916   1.032   0.968   1.008   0.909   0.976   0.911   0.873   0.803   0.906   0.853   0.915   0.986   1.113   0.917   1.005   0.937   0.921   0.908   0.858   0.795   0.879   1.054   1.053   1.090   1.137   0.969   1.000   0.974   1.016   1.057   0.964
   231.00    0.943   0.978   1.000   0.894   0.914   0.900   0.936   1.029   0.936   0.918   0.853   0.937   1.025   0.947   0.913   0.939   0.982   0.830   0.807   0.892   0.942   0.999   1.045   1.017   0.930   0.993   0.991   0.904   0.845   0.880   0.972   1.011   1.045   1.088   1.137   1.040   0.899   0.966   0.928   1.001   0.979
   221.00    0.935   0.971   0.971   0.949   0.903   0.870   1.006   1.005   0.926   0.891   0.973   0.960   0.968   1.031   0.970   0.963   1.007   0.944   0.949   0.909   0.932   1.018   1.000   0.979   0.930   0.955   0.992   0.905   0.859   0.957   1.046   1.074   1.048   1.050   1.052   1.206   0.923   0.929   0.965   0.867   0.887
   211.00    0.923   0.946   0.855   0.912   0.971   0.901   0.944   1.044   0.979   0.897   1.026   0.914   0.963   0.999   0.982   1.039   1.093   0.964   0.886   0.858   0.914   0.930   1.033   0.959   0.870   0.930   0.998   0.842   1.075   1.011   0.930   1.061   0.937   1.019   1.110   1.181   1.098   0.969   0.912   0.913   0.896
   201.00    0.914   0.936   0.980   0.989   0.931   0.908   1.014   1.012   1.102   0.924   1.003   1.072   1.015   1.002   1.015   1.027   1.013   0.956   0.915   0.906   0.946   0.902   0.950   0.926   0.899   0.906   0.924   0.888   1.007   1.058   0.920   1.058   1.074   1.036   1.123   1.188   1.097   0.965   0.973   0.871   0.895
   191.00    0.977   0.872   0.870   0.913   0.914   1.035   1.111   0.989   1.001   0.938   0.964   0.991   0.967   1.036   1.113   0.944   1.029   0.838   0.895   0.914   0.983   0.952   0.940   0.865   0.819   0.888   0.929   0.960   0.971   1.043   0.925   1.091   1.115   1.149   1.166   1.062   1.088   0.906   0.889   0.922   0.905
   181.00    0.953   0.927   0.814   0.814   0.901   1.055   1.039   1.023   0.967   0.899   0.913   0.982   0.934   1.019   0.987   1.015   0.931   0.948   0.946   0.925   0.963   1.014   0.877   0.904   0.800   0.843   0.906   0.949   0.893   1.034   0.996   1.043   1.116   1.095   1.055   1.013   0.941   0.827   0.905   0.961   1.006
   171.00    0.907   0.849   0.905   0.979   1.003   0.922   0.974   0.951   0.940   0.968   0.930   0.920   0.930   0.964   1.006   0.944   0.914   0.948   0.949   0.878   0.939   0.840   0.873   0.873   0.976   0.884   0.876   0.897   0.995   0.896   0.930   1.040   1.097   1.052   1.020   1.018   0.981   1.010   0.912   0.905   0.942
   161.00    0.927   0.870   0.879   0.967   0.977   0.993   0.971   1.009   0.892   0.913   0.953   0.838   0.953   0.840   0.995   0.919   0.860   0.937   0.972   0.903   0.881   0.938   0.783   0.919   0.940   0.865   0.897   0.879   0.928   0.955   0.945   1.039   0.971   1.037   1.047   1.045   1.005   1.006   1.020   0.909   0.928
   151.00    0.878   0.837   0.928   0.934   0.931   0.907   0.879   0.886   0.875   0.851   0.834   0.832   0.993   0.913   1.137   1.047   0.916   0.969   0.883   0.892   0.885   0.880   0.865   0.883   0.873   0.871   0.869   0.830   0.871   0.889   0.925   1.096   0.974   1.100   0.950   0.986   1.012   1.190   1.136   0.955   0.906
   141.00    0.910   0.820   0.924   0.892   0.856   1.005   0.870   0.931   0.923   0.864   0.924   0.825   0.837   0.939   1.044   1.091   0.965   0.951   1.027   0.933   0.903   0.836   0.898   0.854   0.827   0.824   0.938   0.927   0.935   0.937   0.916   1.040   0.998   1.036   0.930   0.960   1.122   1.201   1.129   0.844   0.866
   131.00    0.876   0.970   0.979   1.005   0.850   0.858   0.876   0.938   0.886   0.920   0.891   0.836   0.829   0.940   0.970   1.094   1.024   0.981   1.032   0.850   0.823   0.835   0.861   0.932   0.824   0.850   0.871   0.902   0.857   0.961   0.933   1.031   1.036   1.049   1.030   0.925   1.083   1.047   1.049   1.013   0.899
   121.00    0.866   0.952   0.949   0.900   0.827   0.785   0.929   0.896   0.897   0.872   0.909   0.876   0.831   0.920   0.983   1.029   0.988   0.959   1.017   0.890   0.954   0.816   0.898   0.921   0.993   0.923   0.877   0.826   0.856   0.931   0.927   0.956   1.010   1.022   0.949   0.951   1.102   0.971   1.043   0.958   0.904
   111.00    0.913   1.040   0.883   0.978   1.010   0.896   0.940   0.910   0.962   0.983   0.879   0.906   0.864   0.926   0.996   1.020   1.022   1.024   1.009   0.917   0.913   0.878   0.900   1.053   0.996   0.963   0.884   0.949   0.904   0.896   0.922   1.040   1.055   0.929   0.959   0.996   1.038   0.943   1.019   1.056   0.837
   101.00    0.935   1.033   1.021   1.027   0.934   0.991   1.062   0.980   0.999   1.007   0.872   0.930   0.875   0.835   1.049   1.066   0.940   0.987   1.015   1.002   0.958   0.891   0.875   0.867   0.967   0.873   0.851   0.993   1.021   0.863   0.921   0.948   0.971   0.913   1.071   1.006   0.985   0.995   0.998   1.066   0.959
    91.00    1.017   1.043   0.962   0.937   0.833   0.915   0.891   0.998   1.028   0.911   1.022   0.946   0.985   0.916   0.989   0.985   1.045   0.870   0.967   0.997   0.940   0.856   0.819   0.842   0.852   0.871   0.864   0.949   0.990   1.037   0.953   0.992   0.952   0.970   0.972   1.027   0.874   0.984   1.074   1.141   0.964
    81.00    0.990   1.002   1.030   1.030   0.907   0.938   0.843   0.984   0.964   1.038   0.998   0.990   0.963   1.028   0.910   0.928   0.957   1.061   0.933   0.927   0.963   0.833   0.871   0.954   0.976   0.859   0.942   0.905   0.979   1.036   0.995   0.989   0.956   0.953   0.927   0.950   0.955   0.918   1.023   0.995   1.041
    71.00    0.969   0.973   1.007   0.916   0.936   0.887   0.895   0.979   0.941   1.087   0.945   0.959   0.879   0.929   0.836   0.842   0.876   0.949   0.930   0.896   0.899   0.917   0.912   0.942   1.011   1.036   0.885   0.947   0.995   1.020   0.999   1.045   1.042   0.934   0.946   0.934   1.075   0.940   0.852   0.950   0.939
    61.00    0.971   0.915   0.897   0.959   0.964   0.863   0.770   0.952   0.895   1.050   1.047   0.932   0.876   0.827   0.885   0.875   0.876   0.878   0.884   0.835   0.899   0.939   0.864   0.921   1.046   1.018   0.939   1.046   1.057   1.046   1.102   1.024   1.083   0.965   0.980   1.077   1.111   0.853   1.002   1.039   1.028
    51.00    0.829   0.863   0.978   0.904   0.989   0.934   0.874   0.983   0.983   1.000   0.941   0.971   0.850   0.935   0.851   0.867   0.907   1.000   0.943   0.957   0.916   0.945   1.001   1.017   1.056   1.016   0.984   0.976   0.917   1.006   1.046   0.990   1.030   0.992   1.022   1.159   1.069   1.081   0.987   0.979   1.009
    41.00    0.844   0.846   0.936   0.963   0.953   1.000   1.001   0.974   0.950   0.929   0.969   0.949   0.940   0.961   0.901   0.920   0.905   0.918   0.915   1.013   0.994   0.986   0.959   1.019   0.944   1.032   0.947   1.010   0.926   0.960   0.979   0.969   0.968   1.027   0.997   1.110   1.112   1.093   1.068   1.054   0.995
    31.00    0.884   0.942   0.890   0.940   0.943   0.986   0.898   0.896   0.879   1.004   1.035   0.938   1.007   0.960   0.827   0.907   0.849   0.976   0.856   0.904   0.959   0.969   0.928   0.949   1.047   1.051   0.950   0.927   0.921   0.998   0.979   0.966   0.934   1.047   1.104   1.092   1.131   1.074   1.026   1.033   0.914
    21.00    0.961   0.974   0.822   0.813   0.888   0.953   0.957   0.945   0.932   0.923   0.997   0.882   0.825   0.928   0.862   0.839   0.969   0.948   0.948   0.958   0.883   0.838   0.856   0.937   0.950   1.070   1.161   0.962   1.041   0.976   0.942   0.951   0.909   0.998   1.066   1.024   1.011   0.982   1.076   1.021   0.947
    11.00    0.899   0.959   0.948   0.912   0.874   0.999   0.956   1.077   1.009   0.899   0.900   0.896   0.972   0.903   0.976   0.972   0.946   1.060   0.939   0.905   0.860   0.833   0.879   0.929   0.908   1.011   0.986   1.045   1.054   0.993   0.979   0.917   0.986   1.033   0.984   0.870   0.898   1.026   1.100   1.041   1.064
     1.00    0.974   1.014   0.861   0.856   0.935   0.981   0.969   1.022   1.065   0.939   0.948   0.843   0.955   0.897   0.934   1.061   0.994   1.057   0.952   0.910   0.845   0.809   0.853   0.845   0.898   0.942   1.020   0.945   1.041   0.952   0.953   0.950   0.958   0.978   0.981   0.949   1.027   0.968   1.024   1.025   1.009

   Height   Standard deviation at grid points for the w component:
   301.00    0.947   0.882   0.909   0.838   0.859   0.986   0.889   0.822   0.957   0.925   0.989   0.951   1.083   0.952   0.925   0.966   1.045   1.002   0.961   0.873   1.007   0.904   0.922   0.908   0.876   0.907   0.997   1.000   0.938   0.917   0.917   0.865   1.044   0.885   0.953   0.931   0.959   1.010   0.969   1.049   0.935
   291.00    0.836   0.958   0.941   0.929   0.904   1.022   0.947   0.841   0.898   0.963   1.037   1.043   0.962   0.959   1.024   1.019   1.015   0.976   1.012   1.051   0.994   0.861   0.856   0.879   0.955   1.004   1.032   0.983   0.952   0.951   0.996   1.071   1.012   1.048   0.955   0.932   0.988   1.010   1.001   0.883   0.890
   281.00    0.874   0.925   0.971   1.013   1.009   0.979   0.899   0.988   0.921   0.938   0.964   0.964   0.912   0.937   1.016   1.048   0.949   1.015   1.036   0.989   0.916   0.931   0.889   0.964   0.930   0.966   1.026   1.104   0.975   1.027   1.025   0.967   1.033   1.059   1.012   1.013   0.940   0.905   1.010   0.796   0.916
   271.00    0.789   0.958   0.865   0.921   1.012   1.047   1.060   1.047   1.051   0.943   0.832   0.894   0.920   1.031   1.021   1.030   0.944   0.924   0.938   0.867   0.886   0.984   0.993   1.013   0.888   0.938   0.978   1.040   0.998   1.013   0.948   0.947   1.020   1.073   1.005   0.932   0.867   0.814   0.872   0.836   0.888
   261.00    0.821   0.898   0.874   0.883   0.916   1.021   1.078   1.002   1.002   0.898   0.817   0.899   0.974   0.937   0.857   0.944   0.847   0.921   0.915   0.878   0.799   0.931   0.989   1.020   1.013   0.981   0.942   1.023   1.001   0.906   0.948   0.890   0.896   0.973   0.902   0.911   0.966   0.952   0.946   0.858   0.891
   251.00    0.802   0.809   0.883   0.890   0.973   0.978   0.992   0.927   1.015   1.034   0.814   0.979   0.871   0.917   0.867   0.864   0.934   0.952   0.913   0.889   0.842   0.946   0.975   1.014   1.083   0.894   0.928   0.952   0.959   0.880   0.936   0.961   0.870   0.965   0.926   0.946   1.006   1.021   1.019   1.003   1.033
   241.00    0.864   0.786   0.898   0.951   0.918   1.030   0.911   0.853   0.990   1.067   0.983   0.960   0.950   0.945   0.911   0.988   1.057   0.960   0.916   0.917   0.899   0.928   0.953   0.953   0.913   0.978   0.978   1.016   0.989   0.933   0.881   0.935   0.887   0.894   0.951   1.072   0.969   1.083   0.994   1.032   1.106
   231.00    0.861   0.848   0.912   1.016   1.023   0.961   0.986   1.031   1.012   1.040   0.958   0.890   0.946   0.920   0.863   0.933   1.032   1.001   0.906   0.914   0.866   0.850   0.944   0.891   0.909   0.869   0.994   1.059   1.025   0.940   0.964   0.918   0.911   0.857   1.020   1.078   0.998   0.975   0.983   0.977   1.166
   221.00    0.803   0.911   0.908   1.047   0.929   0.901   1.048   1.011   1.021   1.016   0.894   0.953   0.941   0.880   0.833   0.859   1.041   0.935   0.878   0.884   0.834   0.881   0.945   0.923   0.983   0.960   0.885   1.068   0.991   0.938   0.975   0.876   0.896   0.800   0.995   1.038   0.967   0.990   0.891   0.891   1.011
   211.00    0.826   0.874   0.979   0.931   0.886   0.991   0.943   0.999   1.024   1.103   0.983   0.995   0.887   0.800   0.822   0.975   1.075   0.956   0.919   0.834   0.914   0.877   0.937   0.952   1.000   0.892   0.940   0.999   1.036   0.988   1.161   0.921   0.893   0.909   1.024   0.985   1.045   0.962   0.993   0.956   1.044
   201.00    0.906   1.018   0.984   0.998   0.878   0.963   0.910   0.943   1.023   1.074   0.984   1.050   0.980   0.876   0.993   0.904   0.993   0.943   0.876   0.856   0.896   0.829   0.924   1.098   1.165   1.011   0.833   0.854   1.101   0.875   0.981   1.055   1.024   0.884   1.045   0.913   0.971   1.009   0.913   1.052   1.172
   191.00    0.881   0.915   1.019   0.950   0.982   0.998   0.863   0.939   0.946   0.998   0.924   0.987   0.984   0.937   0.984   0.903   1.008   0.981   0.882   0.930   0.866   0.922   0.950   1.022   1.065   1.031   0.858   0.906   1.039   0.901   0.936   0.989   0.967   0.907   0.974   0.925   0.897   0.937   0.933   1.058   1.060
   181.00    0.904   0.936   1.001   1.013   1.046   1.056   0.919   0.955   0.997   0.900   0.973   0.989   1.150   1.082   1.105   1.074   0.971   0.978   0.900   0.907   0.889   0.882   0.888   0.941   0.912   0.971   0.981   0.987   0.981   0.905   0.870   0.916   0.859   0.883   0.980   0.930   0.939   0.937   0.980   1.042   1.113
   171.00    0.938   0.885   1.022   1.054   1.012   1.033   0.856   0.919   0.888   0.943   0.943   1.008   1.104   1.150   1.026   1.032   0.895   0.889   0.847   0.963   0.951   0.906   0.913   0.931   0.912   0.888   0.916   0.956   0.943   0.977   0.872   0.796   0.881   0.970   1.074   1.022   0.938   1.015   1.015   1.003   1.127
   161.00    0.855   0.960   0.987   1.008   1.017   0.985   0.898   0.935   0.946   0.968   0.907   1.130   1.040   0.999   1.031   0.959   0.954   0.983   0.917   0.955   0.872   0.839   0.939   0.909   0.921   0.947   0.916   0.941   0.992   0.956   0.833   0.816   0.831   0.954   1.064   1.057   1.029   1.041   0.963   1.069   1.051
   151.00    0.823   1.008   0.933   1.000   0.975   0.878   0.905   0.948   0.969   1.006   1.058   1.130   1.093   1.078   0.988   0.978   0.986   0.920   0.899   0.931   0.908   0.905   0.924   0.873   0.929   0.948   0.899   0.997   0.964   0.859   0.780   0.912   0.892   0.920   1.055   1.106   1.021   0.879   0.972   1.120   0.968
   141.00    0.917   0.977   0.939   0.965   0.949   0.885   0.852   0.850   0.963   1.033   1.020   1.073   0.950   1.081   0.970   0.949   0.945   0.970   0.918   0.971   0.908   1.028   0.912   0.961   0.890   0.978   0.852   0.914   1.012   0.858   0.849   0.946   0.933   0.976   0.942   1.097   0.994   0.933   1.034   1.084   0.936
   131.00    0.978   0.982   0.986   1.027   0.991   0.870   0.826   0.827   0.980   0.931   1.065   1.118   0.953   1.058   1.080   1.025   0.964   0.972   0.975   0.909   0.946   1.109   0.918   0.859   0.901   0.953   0.894   0.847   0.940   0.898   0.929   0.976   0.885   1.030   0.983   1.038   0.959   0.891   0.948   1.006   0.974
   121.00    0.916   0.897   0.989   0.951   0.935   0.981   0.972   0.947   0.942   0.987   1.049   1.071   1.049   1.146   1.049   0.906   0.962   0.966   0.970   0.919   0.975   1.018   0.945   0.951   0.910   0.964   0.989   0.927   0.899   0.921   0.987   0.979   0.884   0.999   0.938   0.977   0.882   0.907   0.927   0.934   0.829
   111.00    0.922   0.968   0.987   1.045   1.058   1.077   1.042   1.052   0.994   0.951   0.990   0.953   0.996   1.099   1.090   1.029   0.998   1.030   0.984   1.067   1.033   1.076   0.948   0.925   0.981   1.000   0.923   0.906   0.973   0.976   0.917   0.966   0.974   1.007   1.079   0.874   0.947   0.871   0.926   0.999   0.810
   101.00    0.907   0.953   1.063   1.069   1.098   1.011   1.014   0.981   0.927   0.930   0.970   0.855   0.974   1.056   1.113   1.038   1.020   1.060   1.022   1.052   1.005   1.030   0.999   0.972   0.960   1.015   0.911   0.935   0.931   0.917   0.972   0.907   0.976   0.968   0.889   0.877   0.930   0.978   0.939   0.884   0.835
    91.00    0.938   1.011   1.046   1.101   1.150   0.938   1.034   1.047   1.031   0.912   0.891   0.890   0.944   0.956   1.033   1.044   1.110   1.131   1.055   1.028   0.980   0.912   0.961   1.061   0.981   0.983   1.027   1.007   0.969   0.937   1.015   0.903   0.952   0.949   0.904   0.931   0.942   0.965   0.879   0.876   0.910
    81.00    1.086   1.023   1.019   1.093   1.197   1.101   1.185   1.127   1.122   0.917   0.884   0.871   0.912   0.883   0.918   0.966   1.132   1.050   1.049   0.912   0.940   0.881   0.989   1.008   0.945   0.975   0.918   1.036   1.035   0.896   0.927   0.831   0.890   0.934   0.905   0.933   0.888   0.962   0.865   0.889   0.876
    71.00    1.028   1.037   1.050   1.069   1.120   1.151   1.101   1.218   0.995   0.969   0.979   0.887   0.936   0.914   0.943   1.050   0.980   1.047   1.024   0.928   1.041   0.921   1.000   0.953   0.910   0.888   0.875   0.929   0.895   0.848   0.829   0.954   0.843   0.924   0.869   0.911   0.867   0.893   0.889   0.929   0.941
    61.00    0.995   1.024   1.029   1.011   1.039   1.116   1.134   1.119   1.051   0.888   0.966   0.917   0.937   0.891   1.028   1.023   1.020   1.008   1.068   0.918   0.993   0.868   0.947   0.989   0.925   0.936   0.880   0.876   0.924   0.919   0.927   0.890   0.800   0.853   0.848   0.816   0.935   0.811   0.948   0.920   1.002
    51.00    1.048   1.125   1.122   0.943   0.950   1.075   1.061   1.029   1.071   0.935   0.936   0.887   0.935   0.915   0.961   1.061   0.975   0.974   0.967   0.971   1.023   1.081   1.059   0.955   0.908   0.951   0.880   0.773   0.853   0.928   0.915   0.933   0.882   0.804   0.812   0.839   0.893   0.879   0.966   0.849   0.992
    41.00    0.995   1.083   1.071   0.965   0.806   1.025   1.117   1.024   0.960   0.888   0.915   0.969   0.949   1.025   0.904   1.089   1.065   0.984   0.917   0.940   0.969   1.061   1.074   0.976   0.897   0.865   0.887   0.906   0.782   0.874   0.864   0.888   0.918   0.949   0.824   0.923   0.964   0.926   0.927   0.919   0.994
    31.00    1.030   0.932   0.954   0.981   0.981   1.003   1.049   0.998   0.973   0.934   0.927   0.973   0.960   1.014   0.982   1.090   1.152   1.019   0.959   0.863   1.010   1.071   1.128   1.044   0.841   0.919   0.922   0.903   0.937   0.848   0.959   0.920   0.841   0.851   0.830   0.971   0.875   0.966   0.946   0.920   1.013
    21.00    1.075   0.970   0.851   0.964   0.933   0.941   0.958   0.974   1.041   1.010   0.952   0.942   1.002   1.106   1.087   1.162   1.066   1.020   1.063   1.040   1.097   1.011   1.038   0.972   0.865   0.922   1.008   0.933   0.914   0.880   0.962   0.946   0.922   0.937   0.965   1.024   1.072   1.012   0.945   0.965   0.909
    11.00    1.013   0.945   0.848   0.852   1.005   0.972   0.905   0.981   0.912   1.066   0.995   0.996   0.851   1.083   1.073   1.042   0.969   0.992   1.034   1.001   1.049   0.936   0.967   0.928   0.936   0.964   0.974   0.883   0.990   0.930   0.944   1.000   1.080   0.934   0.995   1.013   1.103   0.914   0.940   0.991   0.940
     1.00    0.974   1.031   0.957   0.857   0.960   0.959   0.949   0.919   0.991   1.057   1.027   0.884   0.837   0.974   1.025   0.997   0.981   1.023   0.966   0.978   1.066   0.986   0.888   0.938   0.969   0.926   0.985   0.918   0.908   0.954   0.964   1.022   1.061   0.980   1.009   1.086   1.065   0.913   0.968   1.059   1.001

   Mean standard deviation across all grid points:
      u component:    0.985 m/s
      v component:    0.958 m/s
      w component:    0.961 m/s


U-component (X) statistics from the interpolated hub point:

   Mean =  10.0066 m/s
   TI   =  10.5940 %


Processing complete.  9.9219 CPU seconds used.
