
This summary file was generated by TurbSim (from OpenFAST-v3.4.1) on 25-Nov-2024 at 22:31:19.


Runtime Options:

      2045  Random seed #1
         0  Random seed #2
         F  Output binary HH turbulence parameters?
         F  Output formatted turbulence parameters?
         F  Output AeroDyn HH files?
         T  Output AeroDyn FF files?
         F  Output BLADED FF files?
         F  Output tower data?
         F  Output HAWC FF files?
         F  Output formatted FF files?
         T  Output coherent turbulence time step file?
 0 -  NONE  IEC turbulence models scaled to exact specified standard deviation


Turbine/Model Specifications:

        31  Vertical grid-point matrix dimension
        41  Horizontal grid-point matrix dimension
     0.100  Time step [seconds]
   200.000  Analysis time [seconds]
   200.000  Usable output time [seconds]
   151.000  Hub height [m]
   300.000  Grid height [m]
   600.000  Grid width [m]
     0.000  Vertical flow angle [degrees]
     0.000  Horizontal flow angle [degrees]


Meteorological Boundary Conditions:

    IECVKM  IEC von Karman spectral model
         1  IEC standard: IEC 61400-1 Ed. 2: 1999
    10.000  Percent turbulence intensity, IEC 61400-1 Ed. 2: 1999
       NTM  IEC Normal Turbulence Model
       N/A  IEC Extreme Turbulence Model (ETM) "c" parameter [m/s]
       PL   Wind profile type
   150.000  Reference height [m]
    10.000  Reference wind speed [m/s]
       N/A  Jet height [m]
     0.100  Power law exponent
     0.030  Surface roughness length [m]


Non-IEC Meteorological Boundary Conditions:

       N/A  Site latitude [degrees]
       N/A  Gradient Richardson number
       N/A  Friction or shear velocity [m/s]
       N/A  Mixing layer depth [m]
       N/A  Mean hub u'w' Reynolds stress
       N/A  Mean hub u'v' Reynolds stress
       N/A  Mean hub v'w' Reynolds stress


Spatial Coherence Models:

       IEC  u-component coherence model
       IEC  v-component coherence model
       IEC  w-component coherence model
(   12.000, 0.659E-03)  u-component coherence parameters
(   12.000, 0.659E-03)  v-component coherence parameters
(   12.000, 0.659E-03)  w-component coherence parameters
       N/A  Coherence exponent


You have requested that the following file(s) be generated:

   ./TurbulentWind_20WT/FOWTs/Wind\InflowWind_High_WT21.bts (AeroDyn/TurbSim full-field wind file)


Turbulence Simulation Scaling Parameter Summary:

   Turbulence model used                            =  IEC von Karman
   Turbulence characteristic                        =  User-specified
   IEC standard                                     =  IEC 61400-1 Ed. 2: 1999
   Mean wind speed at hub height                    =   10.007 m/s
   Characteristic value of standard deviation       =    1.001 m/s
   Turbulence scale                                 =   21.000 m
   Isotropic integral scale                         =   73.500 m
   Characteristic value of hub turbulence intensity =   10.000%
   Gradient Richardson number                       =    0.000

   Wind profile type                                =  Power law
   Power law exponent                               =    0.100
   Mean shear across rotor disk                     =    0.016 (m/s)/m
   Assumed rotor diameter                           =  300.000 m
   Surface roughness length                         =    0.030 m

   Nyquist frequency of turbulent wind field        =    5.000 Hz

   Number of time steps in the FFT                  =     2600
   Number of time steps output                      =     2600
   Number of points simulated                       =     1271


Mean Flow Angles:

   Vertical   =   0.0 degrees
   Horizontal =   0.0 degrees

Mean Wind Speed Profile:

   Height    Wind Speed   Horizontal Angle  Vertical Angle  U-comp (X)   V-comp (Y)   W-comp (Z)
     (m)        (m/s)         (degrees)       (degrees)       (m/s)        (m/s)        (m/s)   
   ------    ----------   ----------------  --------------  ----------   ----------   ----------
    301.0       10.72            0.00            0.00         10.72         0.00         0.00
    291.0       10.69            0.00            0.00         10.69         0.00         0.00
    281.0       10.65            0.00            0.00         10.65         0.00         0.00
    271.0       10.61            0.00            0.00         10.61         0.00         0.00
    261.0       10.57            0.00            0.00         10.57         0.00         0.00
    251.0       10.53            0.00            0.00         10.53         0.00         0.00
    241.0       10.49            0.00            0.00         10.49         0.00         0.00
    231.0       10.44            0.00            0.00         10.44         0.00         0.00
    221.0       10.40            0.00            0.00         10.40         0.00         0.00
    211.0       10.35            0.00            0.00         10.35         0.00         0.00
    201.0       10.30            0.00            0.00         10.30         0.00         0.00
    191.0       10.24            0.00            0.00         10.24         0.00         0.00
    181.0       10.19            0.00            0.00         10.19         0.00         0.00
    171.0       10.13            0.00            0.00         10.13         0.00         0.00
    161.0       10.07            0.00            0.00         10.07         0.00         0.00
    151.0       10.01            0.00            0.00         10.01         0.00         0.00
    141.0        9.94            0.00            0.00          9.94         0.00         0.00
    131.0        9.87            0.00            0.00          9.87         0.00         0.00
    121.0        9.79            0.00            0.00          9.79         0.00         0.00
    111.0        9.70            0.00            0.00          9.70         0.00         0.00
    101.0        9.61            0.00            0.00          9.61         0.00         0.00
     91.0        9.51            0.00            0.00          9.51         0.00         0.00
     81.0        9.40            0.00            0.00          9.40         0.00         0.00
     71.0        9.28            0.00            0.00          9.28         0.00         0.00
     61.0        9.14            0.00            0.00          9.14         0.00         0.00
     51.0        8.98            0.00            0.00          8.98         0.00         0.00
     41.0        8.78            0.00            0.00          8.78         0.00         0.00
     31.0        8.54            0.00            0.00          8.54         0.00         0.00
     21.0        8.22            0.00            0.00          8.22         0.00         0.00
     11.0        7.70            0.00            0.00          7.70         0.00         0.00
      1.0        6.06            0.00            0.00          6.06         0.00         0.00


Harvested Random Seeds after Generation of the Random Numbers:

   1310139252 Harvested seed # 1
   1971657505 Harvested seed # 2


Hub-Height Simulated Turbulence Statistical Summary:

   Type of Wind        Min (m/s)   Mean (m/s)    Max (m/s)  Sigma (m/s)       TI (%)
   ----------------    ---------   ----------    ---------  -----------       ------
   Longitudinal (u)         7.18        10.01        12.74        0.985        9.844
   Lateral (v)             -2.84         0.00         3.07        1.111       11.099
   Vertical (w)            -2.58        -0.00         2.51        0.901        9.001
   U component              7.18        10.01        12.74        0.985        9.844
   V component             -2.84         0.00         3.07        1.111       11.099
   W component             -2.58        -0.00         2.51        0.901        9.001
   Horizontal (U&V)         7.38        10.07        12.77        0.987        9.804
   Total                    7.54        10.11        12.80        0.989        9.782

                       Min Reynolds     Mean Reynolds    Max Reynolds    Correlation
   Product             Stress (m/s)^2   Stress (m/s)^2   Stress (m/s)^2  Coefficient
   ----------------    --------------   --------------   --------------  -----------
   u'w'                     -3.421             0.000             4.698         0.000
   u'v'                     -4.597             0.131             6.022         0.119
   v'w'                     -4.005             0.032             4.295         0.032


   Friction Velocity (Ustar)  =      0.010 m/s
   Maximum Instantaneous TKE  =      7.048 (m/s)^2
   Maximum Instantaneous CTKE =      3.792 (m/s)^2


Grid Point Variance Summary:

   Y-coord -300.00 -285.00 -270.00 -255.00 -240.00 -225.00 -210.00 -195.00 -180.00 -165.00 -150.00 -135.00 -120.00 -105.00  -90.00  -75.00  -60.00  -45.00  -30.00  -15.00    0.00   15.00   30.00   45.00   60.00   75.00   90.00  105.00  120.00  135.00  150.00  165.00  180.00  195.00  210.00  225.00  240.00  255.00  270.00  285.00  300.00

   Height   Standard deviation at grid points for the u component:
   301.00    0.895   0.869   0.858   0.892   0.896   0.993   0.966   0.977   0.794   0.867   0.925   0.976   0.862   0.921   1.011   0.915   1.015   1.283   1.255   1.226   1.256   1.233   1.105   0.990   0.938   0.763   0.901   0.918   0.849   0.954   0.875   0.850   0.894   0.845   0.799   0.917   0.875   0.843   0.874   0.949   1.084
   291.00    0.865   0.894   0.786   0.837   0.880   0.896   1.025   1.002   0.915   0.908   0.914   0.954   0.918   0.845   0.859   0.953   1.078   1.239   1.217   1.205   1.272   1.272   1.150   1.021   0.876   0.937   0.782   0.779   0.842   1.005   1.038   0.826   0.891   0.916   0.803   0.851   0.879   0.870   0.897   0.932   1.034
   281.00    0.937   0.817   0.837   0.837   0.997   0.968   1.020   1.021   0.951   0.996   0.994   0.941   0.906   0.792   0.848   0.903   0.964   1.222   1.179   1.387   1.337   1.219   1.082   0.964   0.982   1.000   0.946   0.874   0.877   0.949   0.890   0.840   0.917   0.885   0.901   0.747   0.833   0.866   0.897   0.977   1.068
   271.00    0.944   0.829   0.859   0.859   1.016   0.995   0.903   1.021   1.034   1.033   1.029   0.959   0.932   0.955   0.930   0.952   0.996   1.153   1.309   1.307   1.328   1.173   1.127   0.963   0.965   0.953   1.056   0.887   0.954   0.905   0.921   0.832   0.841   0.893   0.910   0.821   0.882   0.908   0.827   0.848   0.963
   261.00    0.955   0.806   0.895   0.960   0.947   0.926   0.969   1.073   1.049   1.070   1.019   1.064   1.026   0.993   0.956   1.018   1.062   1.228   1.313   1.411   1.348   1.247   1.095   1.069   1.013   0.978   0.951   0.957   0.934   0.871   0.861   0.743   0.800   0.917   0.796   0.741   0.910   1.000   0.824   0.982   0.962
   251.00    0.895   0.833   0.802   0.933   0.932   0.839   0.965   0.999   1.145   1.058   0.986   1.060   1.014   1.092   1.017   1.001   1.118   1.283   1.326   1.315   1.307   1.346   1.164   1.001   1.067   1.075   0.858   0.826   0.906   0.941   0.830   0.849   0.873   0.844   0.807   0.872   0.846   1.028   1.078   1.133   0.929
   241.00    0.796   0.775   0.914   0.880   0.882   0.982   0.945   1.062   1.032   1.123   1.008   1.068   0.903   1.072   1.062   1.112   1.020   1.224   1.255   1.218   1.174   1.208   1.112   0.947   0.967   1.028   0.995   0.982   0.961   0.951   0.986   0.815   0.771   0.815   0.911   0.855   0.816   0.993   1.071   1.085   0.970
   231.00    0.755   0.831   0.899   0.882   0.815   0.902   0.953   0.946   0.913   1.005   0.924   1.028   0.915   0.976   1.164   1.165   1.015   1.146   1.253   1.239   1.121   1.134   1.044   0.961   0.905   0.977   0.979   1.053   0.976   0.953   0.940   0.802   0.915   0.917   1.056   0.932   0.861   0.924   1.078   1.146   1.042
   221.00    0.937   0.836   0.895   0.867   0.782   0.863   0.849   0.797   0.826   0.826   0.953   0.961   0.880   1.003   1.101   1.288   1.114   1.224   1.169   1.067   1.156   1.156   1.017   1.002   1.030   1.102   1.042   0.999   0.977   0.925   0.901   0.772   0.822   0.898   1.005   1.047   0.892   0.963   1.026   1.026   0.946
   211.00    0.861   0.908   0.893   1.010   0.905   0.793   0.814   0.847   0.773   0.791   0.959   0.906   0.890   1.057   1.207   1.206   1.152   1.109   1.187   1.230   1.237   1.120   1.020   1.116   1.138   1.083   0.910   0.922   0.983   0.849   0.817   0.798   0.760   0.895   0.930   0.989   0.921   0.866   0.930   1.015   0.953
   201.00    0.864   0.814   0.943   0.979   0.870   0.811   0.807   0.848   0.795   0.953   0.943   1.015   0.973   1.051   1.158   1.122   1.053   1.217   1.184   1.155   1.105   1.277   1.010   1.054   1.177   1.084   0.979   0.951   0.901   0.877   0.867   0.746   0.747   0.869   0.883   0.835   0.836   0.908   0.789   0.923   1.069
   191.00    0.802   0.862   0.943   0.992   0.862   0.858   0.666   0.869   0.831   0.938   0.985   1.050   1.030   1.130   1.099   0.950   1.074   1.192   1.203   1.198   1.097   1.241   1.161   1.015   1.059   1.092   1.005   0.889   0.814   0.835   0.871   0.944   0.904   1.028   0.875   0.899   0.831   0.872   0.828   0.985   1.140
   181.00    0.821   0.971   1.025   0.934   0.972   0.875   0.867   0.836   0.871   0.908   0.884   0.953   0.977   1.080   1.063   0.931   1.081   1.135   1.169   1.184   1.004   1.106   1.149   1.071   0.935   0.978   1.023   0.879   0.956   0.898   0.948   0.951   0.977   0.968   1.017   0.878   0.834   0.898   0.850   0.823   1.043
   171.00    0.971   0.968   1.044   0.913   0.904   0.982   0.871   0.969   0.892   0.937   0.956   0.907   0.984   1.101   0.997   0.965   1.012   1.032   1.032   1.109   1.087   1.175   1.211   1.165   0.978   0.981   0.939   0.981   1.070   0.880   0.895   0.992   0.978   0.998   0.980   0.910   0.824   0.839   0.798   0.935   1.052
   161.00    1.096   0.952   1.032   0.928   0.907   0.954   0.980   1.008   0.944   0.821   0.815   0.831   0.948   0.930   0.956   0.925   0.859   1.101   1.055   0.973   1.010   1.143   1.297   1.224   0.983   0.920   0.925   0.915   1.064   0.886   0.886   1.082   1.036   1.052   0.929   0.915   0.899   0.865   0.927   0.917   0.989
   151.00    1.090   1.111   1.006   0.938   0.973   0.950   0.907   0.885   0.929   0.737   0.786   0.816   0.938   0.920   1.021   0.857   1.065   1.086   1.055   0.932   0.985   1.102   1.260   1.199   1.080   0.937   0.875   0.975   0.939   0.848   0.948   0.937   0.993   1.022   0.823   0.890   0.891   0.859   0.873   0.877   1.025
   141.00    1.061   1.045   0.928   0.919   0.971   1.010   0.793   0.914   0.822   0.727   0.811   0.872   0.948   0.807   0.981   0.986   1.133   1.000   0.934   1.055   0.940   0.997   1.107   1.239   1.167   0.928   0.919   0.870   0.831   0.807   0.927   0.886   0.956   0.934   0.951   0.973   0.915   0.757   0.803   1.028   1.057
   131.00    1.050   1.016   1.040   1.017   0.940   0.981   0.843   0.963   0.908   0.880   0.839   0.876   0.883   0.951   0.961   1.057   0.998   0.925   0.798   0.964   0.961   0.941   1.108   1.151   1.139   1.064   0.993   0.923   0.874   0.815   0.839   0.863   0.866   0.988   0.871   0.982   0.872   0.911   0.814   0.937   1.016
   121.00    1.140   1.088   1.102   1.070   0.870   0.844   0.829   0.910   0.939   0.990   0.856   0.887   0.784   1.007   1.086   1.019   0.960   0.800   0.847   1.039   0.888   1.001   1.006   1.139   1.045   1.062   1.059   1.022   0.911   0.749   0.724   0.862   1.018   1.097   0.876   1.015   0.963   0.935   0.999   0.869   1.009
   111.00    1.010   1.044   0.979   1.068   0.946   0.907   0.868   0.906   0.926   0.893   0.860   0.850   0.802   0.937   1.015   1.130   0.980   0.856   0.857   0.940   0.902   0.934   1.003   0.983   1.074   1.026   1.061   0.964   0.836   0.800   0.794   0.866   0.898   1.092   1.042   0.980   1.038   1.079   0.995   0.905   1.044
   101.00    1.068   0.996   0.963   1.000   0.933   0.934   0.876   0.890   0.884   0.788   0.909   0.922   0.899   0.954   1.074   1.145   0.993   0.859   0.912   0.869   0.943   0.917   0.938   1.012   1.051   1.093   1.066   0.960   0.888   0.792   0.916   0.910   0.882   0.986   1.119   1.168   1.004   1.005   1.056   0.889   1.001
    91.00    1.075   0.906   0.958   0.922   0.894   1.023   0.950   0.900   0.853   0.773   0.935   0.945   0.921   1.046   1.103   1.102   1.027   0.979   0.906   0.953   0.863   0.931   0.952   0.905   1.144   1.167   1.108   0.903   0.898   0.780   0.869   0.902   0.907   1.004   0.989   1.066   0.918   0.924   1.009   0.998   1.038
    81.00    0.960   0.964   0.898   0.986   0.925   1.021   0.914   1.003   1.005   0.901   0.900   0.989   1.040   1.030   1.035   1.052   1.096   0.965   0.951   1.009   1.045   0.962   0.996   1.095   1.107   1.135   1.193   0.953   0.906   0.926   0.886   0.949   0.912   0.990   0.971   0.929   1.014   0.940   1.032   0.992   1.018
    71.00    0.870   0.946   0.920   1.009   1.114   1.112   0.986   1.056   0.987   0.895   0.904   0.987   1.001   1.012   0.904   0.942   1.049   0.959   0.999   1.014   0.916   0.892   0.922   0.964   1.060   1.072   1.143   0.922   0.894   0.945   1.013   1.087   0.843   0.991   0.963   0.998   1.030   1.010   1.104   0.983   0.999
    61.00    0.802   0.921   0.941   1.067   1.041   0.966   1.041   1.035   0.953   0.900   1.018   0.972   1.170   1.067   0.925   0.851   0.907   1.009   0.986   0.956   0.883   0.909   0.964   0.986   0.978   1.076   1.130   0.989   1.094   1.062   1.082   1.073   0.989   1.015   0.954   0.995   1.041   1.035   1.073   1.016   0.897
    51.00    0.960   0.971   0.941   1.021   0.988   0.971   1.043   1.042   0.868   0.816   0.979   1.019   1.131   0.969   0.883   0.989   1.009   1.010   0.956   0.854   0.888   0.900   0.926   0.998   1.040   1.169   1.034   0.977   1.147   1.108   1.028   1.048   1.113   0.966   0.997   0.990   0.946   0.923   1.052   0.999   1.069
    41.00    0.972   1.053   0.922   0.953   1.020   0.994   0.937   0.959   0.897   0.824   0.880   0.932   0.990   0.936   0.999   0.984   1.009   1.011   0.878   0.920   0.951   0.951   0.936   0.933   1.047   1.159   0.996   0.996   1.125   0.867   0.954   1.030   1.057   1.033   1.124   1.034   0.891   1.003   1.013   0.928   0.965
    31.00    0.999   1.019   0.966   0.890   0.910   0.993   0.825   0.876   0.912   0.804   0.866   0.893   0.977   0.996   0.982   0.972   0.983   0.896   1.079   0.935   1.021   0.983   0.909   0.916   0.985   1.134   1.107   1.090   1.065   0.849   0.830   0.953   0.941   1.035   1.045   1.033   0.968   1.060   1.026   0.896   0.910
    21.00    1.001   1.054   0.994   1.001   0.885   0.943   0.848   1.019   0.873   0.913   0.957   0.885   0.888   0.956   0.932   0.921   0.879   0.914   1.013   0.983   0.967   0.947   0.773   0.921   1.093   1.159   1.003   0.923   0.919   0.832   0.821   0.841   0.841   1.028   1.091   0.952   0.995   1.074   0.985   0.834   0.965
    11.00    0.925   1.005   0.986   0.999   0.961   0.944   0.903   0.861   0.809   0.861   0.866   0.845   0.909   0.942   0.904   0.892   0.864   0.896   0.911   0.915   0.945   0.828   0.666   0.886   1.036   1.106   1.076   0.962   0.853   0.867   0.915   0.855   0.894   0.941   1.019   1.032   0.933   0.904   0.887   0.970   0.900
     1.00    0.963   0.939   0.963   1.068   0.936   0.995   0.945   0.705   0.792   0.863   0.908   0.919   0.905   0.842   0.838   0.800   0.861   0.953   0.902   0.972   0.858   0.879   0.923   0.854   1.047   1.114   0.974   0.938   0.862   0.833   0.876   0.800   0.867   1.012   0.942   1.018   0.943   0.868   0.932   1.040   0.864

   Height   Standard deviation at grid points for the v component:
   301.00    1.030   1.105   0.907   1.036   0.987   0.896   0.824   0.998   0.921   0.954   0.899   0.882   0.812   0.824   0.905   0.968   0.943   0.851   0.763   0.862   0.967   0.970   1.049   1.081   1.156   1.128   1.045   1.039   1.032   0.896   0.951   0.853   0.865   0.836   0.909   0.928   1.028   1.036   1.130   0.962   0.938
   291.00    1.075   1.068   1.085   1.086   1.005   0.872   0.938   1.023   1.028   0.986   0.935   0.913   0.894   0.825   0.825   0.921   0.876   0.891   0.843   0.940   1.037   1.070   1.020   1.074   1.177   1.166   1.076   1.100   1.047   0.864   0.929   0.909   0.944   0.865   0.861   0.998   0.974   1.014   1.044   0.957   1.004
   281.00    1.078   1.041   1.045   1.026   1.017   0.921   0.981   1.085   1.042   0.965   1.018   0.845   0.852   0.879   0.811   0.864   0.952   0.893   0.957   0.934   1.028   1.112   1.060   1.071   1.084   1.096   1.082   1.024   0.955   0.834   0.950   0.909   0.883   0.892   0.897   0.999   0.951   1.012   1.012   1.031   1.047
   271.00    1.086   1.041   1.069   1.044   1.031   1.060   0.978   1.076   1.072   1.033   0.983   0.895   0.835   0.902   0.845   0.859   0.928   1.001   0.934   0.936   1.088   1.037   0.923   1.085   1.005   1.014   0.990   0.903   0.882   0.815   0.868   0.948   0.899   0.927   1.031   0.976   0.971   0.989   0.997   0.997   1.095
   261.00    1.027   1.024   1.030   1.021   0.918   1.065   1.053   1.155   1.022   1.056   0.953   0.832   0.896   0.951   0.832   0.886   0.955   0.957   0.931   1.016   1.111   0.988   0.907   0.984   1.002   1.016   0.963   0.889   0.897   0.799   0.881   0.939   0.959   1.010   1.064   0.996   1.083   1.067   1.074   1.020   1.101
   251.00    0.950   0.955   0.960   1.047   0.955   1.084   1.148   1.227   1.173   0.875   0.984   0.927   0.893   0.887   0.933   0.997   0.983   0.959   1.035   1.009   1.095   1.147   0.931   0.939   0.996   0.946   0.933   0.812   0.836   0.923   0.948   0.947   0.936   0.915   0.976   1.080   1.015   1.122   1.087   1.058   1.117
   241.00    0.936   0.917   0.922   1.046   1.039   1.037   1.092   1.238   1.133   1.005   0.818   0.859   0.844   0.950   0.993   1.005   0.950   0.987   1.019   0.970   1.008   1.119   1.015   1.044   0.945   0.929   0.902   0.919   0.897   0.947   0.929   0.967   0.958   1.021   0.995   1.069   0.893   0.959   1.010   1.006   1.004
   231.00    0.931   0.824   0.833   0.937   0.999   0.971   1.077   1.118   1.012   0.962   0.919   0.823   0.948   1.040   1.023   1.067   0.979   0.981   0.978   0.921   0.895   1.057   0.969   0.925   0.902   0.820   0.944   0.883   0.917   1.020   0.952   0.909   0.947   1.025   0.937   0.915   0.876   0.933   1.061   1.104   0.942
   221.00    0.810   0.934   0.942   0.897   0.922   1.035   1.048   1.007   0.924   0.952   0.867   0.938   0.965   1.008   0.921   0.877   0.978   0.948   0.962   0.961   0.888   0.935   0.921   0.915   0.923   0.934   0.835   0.818   0.930   1.016   0.950   0.899   0.931   0.977   0.937   0.793   0.962   0.961   0.987   0.986   0.931
   211.00    1.004   0.973   0.998   0.973   0.936   1.045   0.957   0.927   0.950   0.994   0.992   0.946   1.045   0.952   0.945   0.870   1.050   1.026   0.840   0.928   0.969   0.936   0.929   0.840   0.896   0.955   0.870   0.861   0.882   0.912   0.848   0.874   0.932   0.948   0.868   0.940   0.929   0.938   0.985   1.012   0.946
   201.00    0.984   0.927   1.020   1.015   0.990   0.986   0.929   0.980   0.954   0.997   0.900   0.941   0.993   1.017   0.976   0.980   1.041   1.004   0.783   0.926   1.000   0.873   0.864   0.911   0.952   0.985   0.907   0.950   0.878   0.874   0.925   0.828   0.818   0.861   0.938   0.959   0.962   0.896   0.942   0.968   0.928
   191.00    0.924   0.859   1.022   0.986   0.884   0.909   1.006   0.953   0.995   0.942   0.831   0.921   0.925   0.895   0.990   0.998   0.945   0.996   0.880   0.999   0.901   0.878   0.874   0.890   0.918   1.007   0.965   0.951   0.870   0.827   0.977   0.857   0.807   0.924   0.936   0.937   0.993   0.971   0.967   0.854   1.039
   181.00    0.969   0.957   0.965   0.923   0.972   0.970   0.991   1.011   1.001   0.926   0.862   0.950   0.984   0.922   0.989   1.015   1.063   1.057   0.863   0.890   0.855   0.906   0.902   0.789   0.821   0.993   1.039   1.034   0.848   0.861   0.866   0.884   0.779   0.788   0.981   1.026   0.966   0.979   0.939   0.843   0.950
   171.00    1.132   1.052   0.906   0.846   1.037   0.942   0.949   0.905   0.963   1.003   0.915   1.015   1.089   0.959   0.922   1.084   0.938   1.069   1.050   1.048   0.856   0.917   0.866   0.933   0.997   0.948   1.055   0.883   0.828   0.848   0.846   0.899   0.886   0.825   0.925   0.962   0.940   0.966   0.863   0.929   0.916
   161.00    1.021   1.057   0.916   1.091   1.070   0.967   0.944   0.898   0.946   1.048   0.968   1.046   1.052   0.942   0.855   1.105   0.989   1.097   1.058   1.095   1.046   0.924   0.966   1.057   1.051   1.087   1.060   0.961   0.952   0.876   0.830   0.863   0.881   0.826   0.914   0.984   0.905   0.854   0.905   0.917   0.991
   151.00    1.013   1.015   0.985   1.142   1.177   1.055   1.012   0.868   0.902   1.062   1.033   0.956   1.012   0.971   0.943   1.083   1.017   1.097   1.058   1.149   1.111   0.990   0.967   0.938   1.137   1.052   1.042   0.952   0.848   0.823   0.882   0.858   0.927   0.864   0.840   0.943   0.957   0.827   0.819   0.802   0.945
   141.00    1.084   1.006   1.029   1.094   1.029   1.036   0.944   0.880   0.890   1.003   1.029   0.896   1.035   1.000   0.938   1.073   1.143   1.076   1.005   0.988   0.982   0.968   1.068   1.054   1.130   1.087   1.059   0.946   0.828   0.798   0.862   0.862   0.898   0.814   0.833   0.888   0.965   0.856   0.811   0.776   0.862
   131.00    1.118   0.982   0.859   0.998   0.961   0.976   0.951   0.876   0.907   0.911   0.935   0.899   0.953   0.857   0.912   1.062   1.067   1.081   0.933   0.898   0.891   0.965   0.950   1.071   1.061   1.068   0.973   0.867   0.981   0.868   0.841   0.816   0.800   0.803   0.797   0.966   0.946   0.886   0.806   0.783   0.805
   121.00    1.165   1.033   1.007   0.923   0.999   0.998   0.987   0.886   0.928   0.915   0.921   0.927   0.933   0.897   0.970   1.063   1.053   0.993   1.027   0.896   0.883   0.979   0.989   1.087   1.048   0.991   0.968   0.918   0.879   0.971   0.851   0.847   0.872   0.858   0.839   0.963   0.968   1.016   0.885   0.884   0.888
   111.00    1.156   0.978   0.954   1.032   1.061   1.056   1.085   0.932   1.004   0.982   0.933   0.950   0.947   0.917   1.067   1.053   1.084   0.959   0.939   0.960   0.979   0.961   1.005   1.003   1.024   1.025   1.014   0.937   0.871   0.830   0.832   0.849   0.879   0.769   0.862   0.874   1.036   0.916   0.902   0.793   0.899
   101.00    1.118   1.017   1.024   1.105   1.047   1.045   0.987   1.006   0.989   0.965   0.984   0.932   0.974   0.999   1.065   1.014   0.997   1.038   0.910   0.951   1.023   1.036   0.964   0.975   1.045   0.954   0.922   0.967   0.925   0.820   0.858   0.844   0.953   0.772   0.884   0.969   0.900   0.815   0.869   0.884   0.910
    91.00    1.029   1.059   1.060   1.124   1.176   1.033   1.009   0.983   1.037   0.918   1.039   0.894   0.986   0.948   1.057   0.928   0.906   0.989   0.935   1.080   1.004   1.022   1.024   0.997   1.020   0.917   0.971   0.917   0.983   0.927   0.854   0.897   0.966   0.878   0.896   0.956   0.888   0.803   0.883   0.945   0.978
    81.00    1.063   1.023   1.131   1.118   1.121   1.076   1.021   1.023   1.037   0.964   0.996   1.069   0.967   0.833   1.036   1.018   0.883   1.024   0.980   1.170   1.073   1.069   1.029   0.993   0.968   1.015   0.937   0.942   1.004   0.935   0.867   0.903   0.876   1.001   1.031   0.932   0.822   0.912   0.939   0.956   0.930
    71.00    0.991   1.047   1.171   1.126   1.109   1.075   1.042   1.084   1.108   1.046   1.003   1.053   1.002   0.848   0.975   1.000   0.905   0.966   1.053   1.120   1.035   0.920   0.977   0.975   1.005   1.034   0.939   0.988   1.004   0.922   0.886   0.928   0.939   0.932   1.013   0.955   0.874   0.959   0.951   0.946   0.896
    61.00    1.055   1.137   1.166   1.114   1.060   1.071   1.041   1.109   1.159   0.994   1.054   1.090   1.037   0.963   0.978   0.947   0.931   0.958   0.955   1.117   0.956   0.949   0.964   1.051   1.023   1.010   0.867   0.956   1.041   0.985   0.932   0.895   0.961   0.923   0.927   1.013   0.972   1.065   0.961   0.956   0.990
    51.00    1.122   1.168   1.189   1.157   1.071   0.974   1.006   1.088   1.029   1.039   1.088   1.067   0.917   0.912   1.038   1.039   1.071   0.996   0.935   0.990   0.998   0.857   0.838   0.942   1.003   0.924   0.852   0.941   0.917   1.019   0.970   0.970   0.923   0.886   0.915   0.966   1.008   1.127   1.042   0.971   0.967
    41.00    1.076   1.080   1.120   1.162   1.061   1.032   0.990   1.067   1.031   1.047   0.937   0.947   0.968   0.921   1.070   1.001   1.012   1.053   0.979   0.920   0.976   0.978   0.983   0.902   0.970   0.842   0.934   0.926   0.947   0.917   1.030   0.940   1.002   0.921   0.974   0.999   1.068   1.106   1.142   1.083   0.941
    31.00    1.077   1.039   1.149   1.068   1.032   1.020   1.029   1.031   0.914   0.893   0.939   1.017   0.970   0.937   1.030   1.034   0.942   1.008   0.834   0.924   0.936   0.961   0.981   0.957   0.942   0.868   0.860   0.934   0.891   0.941   1.027   0.918   0.954   0.884   0.869   0.986   0.977   1.015   1.104   1.061   1.046
    21.00    0.944   1.011   1.068   1.045   0.984   0.947   0.963   0.921   0.912   0.891   0.861   0.989   1.087   1.074   1.061   1.165   1.046   1.082   1.029   0.908   0.877   0.928   1.019   0.983   0.971   0.931   0.889   0.952   0.963   0.951   1.051   0.947   1.018   0.808   0.811   0.851   1.067   1.088   0.999   1.092   1.075
    11.00    0.861   0.956   1.103   0.918   0.960   1.019   1.033   0.998   0.927   0.828   0.781   0.880   1.063   1.048   0.928   1.075   1.059   1.078   1.068   0.903   0.954   0.929   0.983   0.953   0.986   0.934   0.948   0.939   0.991   0.924   1.009   0.972   0.951   0.921   0.799   0.972   1.075   1.128   1.186   1.029   1.059
     1.00    0.974   0.996   1.056   0.909   0.936   0.981   0.984   1.018   0.858   0.957   0.817   0.884   0.965   1.061   1.060   1.142   1.045   1.006   1.024   1.015   0.982   0.974   0.889   0.907   0.975   1.005   0.927   0.976   0.966   0.928   0.961   0.962   0.969   0.893   0.829   0.933   1.084   1.108   1.138   1.040   1.068

   Height   Standard deviation at grid points for the w component:
   301.00    0.916   0.913   0.853   0.854   0.966   0.973   0.972   0.957   0.972   0.972   0.962   0.905   0.825   0.822   0.990   1.052   1.093   1.050   0.924   0.879   0.948   1.022   0.998   0.948   0.984   1.009   1.109   1.003   0.943   0.961   1.005   0.993   0.829   0.830   1.006   1.057   1.059   1.066   1.049   1.005   0.956
   291.00    0.911   0.825   0.894   0.872   1.043   0.997   0.990   0.958   1.024   0.902   0.937   0.945   0.924   0.844   0.970   0.929   0.962   0.924   0.948   0.831   0.892   0.967   0.855   0.934   0.952   0.981   1.042   1.037   0.972   1.094   1.119   1.028   0.930   0.862   0.939   1.026   1.116   1.138   1.055   0.947   0.992
   281.00    0.879   0.883   0.922   1.001   1.053   1.059   0.990   0.961   0.988   1.001   1.051   1.065   0.906   0.897   0.915   0.942   1.033   1.005   1.087   0.904   0.922   0.886   0.938   0.916   0.863   0.906   1.026   1.100   0.929   1.053   1.134   0.971   0.863   0.940   0.902   1.019   1.111   1.072   1.097   0.991   0.907
   271.00    1.072   1.017   0.900   1.014   1.105   0.925   0.966   0.947   1.025   0.977   1.025   1.095   0.961   0.904   0.960   0.918   0.940   0.906   0.979   0.950   1.032   0.934   0.893   0.954   0.863   1.019   1.122   1.000   0.984   0.932   1.011   0.991   0.982   1.015   0.921   0.973   1.032   1.095   1.257   1.131   0.928
   261.00    1.120   0.958   0.923   0.938   1.020   1.036   0.965   0.882   1.064   0.970   1.001   0.971   0.978   0.900   0.928   0.839   0.897   0.963   0.881   0.944   0.906   0.881   0.852   0.861   0.846   0.937   1.010   1.009   0.946   0.910   0.876   0.939   1.059   0.988   0.944   0.914   0.964   1.068   1.189   1.194   0.994
   251.00    1.067   0.933   0.912   0.944   0.874   1.014   1.011   1.019   1.024   1.024   0.969   1.056   0.979   0.895   0.985   0.891   0.923   1.010   0.925   0.969   0.934   0.812   0.868   0.873   0.971   0.876   0.913   1.007   0.837   0.999   0.877   0.879   0.911   1.072   0.999   1.035   1.142   1.217   1.154   1.204   0.998
   241.00    1.126   1.000   1.088   0.950   0.990   1.007   0.907   1.003   0.958   0.905   1.028   1.069   0.959   0.929   0.968   0.879   1.027   1.043   0.955   0.947   0.961   0.880   0.965   0.935   0.995   0.879   0.931   0.931   0.965   0.914   0.978   0.881   0.948   1.052   0.965   0.989   1.070   1.162   1.189   1.152   1.067
   231.00    1.082   1.076   1.020   1.017   1.001   0.986   1.024   0.942   0.984   0.958   1.037   1.027   0.940   0.903   0.994   0.865   1.055   1.085   1.070   0.902   0.889   0.985   1.037   1.062   1.002   0.910   0.869   0.915   0.846   0.853   0.861   0.830   0.884   1.008   0.819   0.970   1.001   1.063   1.028   1.191   1.127
   221.00    1.058   1.074   0.999   0.908   0.970   1.046   1.004   0.900   1.049   0.986   0.991   0.845   0.962   0.945   0.932   0.912   0.948   0.951   0.982   0.997   0.947   1.016   1.012   1.014   1.103   0.943   0.945   0.879   0.855   0.901   0.818   0.853   0.923   0.958   1.001   0.961   1.006   0.963   0.996   1.046   1.081
   211.00    1.019   0.987   0.931   0.955   0.935   0.936   0.956   1.029   1.016   0.999   0.915   0.927   1.003   1.001   0.944   0.915   1.002   0.911   1.042   1.006   1.010   0.994   0.944   1.016   0.958   1.008   0.879   0.954   0.918   0.845   0.820   0.909   0.940   0.888   0.933   0.978   0.992   0.953   0.918   0.940   0.953
   201.00    1.051   0.981   1.039   1.004   0.937   0.997   0.860   1.027   0.931   0.944   0.971   0.911   0.958   1.054   1.056   1.097   1.033   0.948   0.995   1.019   1.075   1.083   0.975   0.924   1.020   1.007   0.899   0.964   0.855   0.921   0.902   0.877   0.951   0.935   0.925   0.914   0.944   1.052   0.891   0.933   0.896
   191.00    1.038   1.043   1.034   0.939   0.957   0.977   0.839   0.945   1.012   0.966   0.895   0.930   0.923   0.996   1.132   1.018   0.982   1.004   1.045   1.085   1.138   1.071   0.945   0.953   1.022   0.940   0.937   0.971   0.945   0.887   0.931   0.952   0.923   0.941   0.959   0.976   0.891   0.917   0.890   0.893   0.855
   181.00    1.009   0.954   0.958   0.916   0.897   0.871   0.928   0.945   0.952   0.902   0.857   0.927   0.934   0.979   1.113   0.991   1.062   0.994   1.105   1.045   1.042   1.048   0.908   0.937   0.891   0.816   0.896   0.810   0.964   0.892   1.008   0.949   0.934   0.920   0.902   0.931   0.984   0.999   0.931   0.825   0.932
   171.00    1.099   0.982   0.979   0.896   0.909   0.944   0.857   0.830   0.885   0.928   0.981   0.940   0.991   0.990   1.205   1.008   1.101   1.069   1.040   1.052   0.978   0.918   0.862   0.870   0.844   0.822   0.835   0.854   0.898   0.879   0.980   0.917   0.892   0.990   0.888   0.893   1.021   1.097   0.988   0.892   0.961
   161.00    0.974   1.083   0.936   0.903   0.997   0.948   0.856   0.805   0.950   0.953   1.059   1.036   1.009   1.027   1.108   0.994   1.057   0.938   0.943   0.918   0.970   0.885   0.879   0.971   0.865   0.871   0.920   0.858   0.898   0.925   0.964   0.946   0.951   0.971   0.966   0.971   0.943   0.964   0.996   0.916   0.977
   151.00    1.005   1.005   0.978   0.990   1.052   0.990   0.864   0.850   0.954   0.973   1.090   1.111   0.989   0.993   1.120   1.038   0.990   0.897   0.998   0.917   0.901   0.925   0.821   0.904   0.885   0.901   0.908   0.960   0.900   0.980   0.911   0.901   0.969   0.906   0.902   0.935   0.962   0.967   0.940   0.981   1.061
   141.00    0.973   1.000   0.978   0.977   1.037   0.980   0.798   0.914   0.964   1.033   1.099   1.000   0.953   1.013   1.046   1.134   1.061   1.027   0.980   0.994   0.923   0.924   0.892   0.817   0.891   0.956   0.972   0.982   0.920   0.902   0.943   0.977   0.955   0.958   0.976   1.007   1.030   1.006   0.944   0.995   0.920
   131.00    1.072   1.013   0.932   1.056   0.950   0.841   0.944   0.870   0.951   0.971   1.021   0.977   0.947   0.933   1.013   1.039   1.078   1.099   0.963   1.008   0.941   0.949   1.086   0.866   0.949   0.917   0.989   1.018   0.972   0.954   0.947   0.967   1.011   1.050   1.042   1.008   0.908   0.940   1.034   0.990   0.976
   121.00    1.032   1.020   1.020   0.976   1.017   0.945   0.918   0.993   0.924   0.956   1.021   1.021   0.934   0.825   1.028   0.977   1.068   1.058   1.010   1.017   1.030   1.116   1.141   1.025   1.011   1.054   1.005   1.010   1.036   1.006   0.898   1.011   1.003   1.050   0.960   0.986   0.849   0.881   0.996   0.980   1.017
   111.00    1.023   0.943   1.100   1.082   1.005   1.005   1.051   0.976   0.785   0.919   0.923   0.961   0.983   0.936   0.896   0.964   0.941   1.037   0.994   0.993   0.977   1.064   1.217   0.992   0.924   1.017   1.059   0.950   0.953   0.979   1.043   0.944   0.997   0.980   1.040   1.004   0.978   0.950   0.961   0.945   0.966
   101.00    0.965   0.962   1.077   1.079   0.989   1.039   1.029   0.939   0.895   0.926   0.849   0.828   0.916   0.924   0.928   0.969   0.981   0.908   0.946   0.916   0.974   1.058   1.098   0.949   0.961   0.895   1.101   0.941   1.026   0.883   0.994   1.032   1.045   1.032   1.104   1.022   1.023   0.959   0.934   0.986   0.853
    91.00    0.923   0.919   1.035   0.999   1.025   1.023   1.048   0.966   0.922   0.943   0.839   0.837   0.887   0.878   0.900   0.907   0.953   0.894   0.951   0.942   0.957   0.988   0.987   1.094   1.124   1.054   1.034   1.000   1.005   1.018   1.086   1.073   1.049   1.096   1.091   1.062   1.119   1.017   1.082   1.100   1.014
    81.00    0.843   0.884   1.045   0.970   0.999   1.010   1.072   1.049   0.972   0.945   0.832   0.844   0.913   0.948   0.886   1.005   0.901   0.857   0.996   0.908   0.908   0.881   1.006   1.096   1.113   1.099   1.036   0.970   1.025   1.022   1.035   1.103   1.001   1.012   1.082   1.086   1.105   0.997   1.081   1.196   1.092
    71.00    0.957   0.883   1.032   0.939   0.941   0.939   0.988   0.936   0.977   0.985   0.911   0.833   0.941   0.952   0.908   0.929   0.909   0.958   1.034   0.939   0.953   0.896   1.041   1.032   0.996   1.069   1.054   1.031   1.028   1.035   1.040   1.068   0.989   1.021   1.054   1.048   1.090   1.076   1.199   1.203   1.040
    61.00    1.006   0.933   1.016   0.875   0.956   0.939   0.935   0.920   1.025   0.906   0.861   0.918   0.926   0.952   0.903   0.914   0.823   0.954   1.104   1.084   1.006   0.991   0.976   0.901   1.005   1.010   0.937   1.059   1.104   1.023   0.974   0.962   0.919   0.972   0.971   1.000   0.985   1.056   1.114   1.223   1.041
    51.00    0.968   0.929   1.025   1.054   0.944   0.948   0.927   0.964   0.915   0.893   0.907   0.885   0.924   0.908   0.840   0.895   0.924   1.010   0.978   0.992   0.948   0.948   0.984   0.987   1.082   0.972   0.908   0.979   1.045   0.976   0.922   1.038   1.006   0.985   0.903   0.894   0.980   1.104   1.188   1.200   1.057
    41.00    0.975   0.928   0.970   1.020   0.926   0.859   0.915   0.958   0.915   0.815   0.872   0.845   0.859   0.928   0.923   0.927   1.013   0.920   1.027   1.008   0.975   0.940   0.931   1.045   1.061   0.924   0.932   0.989   0.982   0.974   0.927   1.033   1.017   0.844   0.969   1.002   1.151   1.200   1.230   1.099   1.022
    31.00    1.061   0.816   0.970   0.977   1.035   0.973   0.975   0.925   0.922   0.899   0.817   0.876   0.929   0.936   0.980   1.019   0.974   1.002   1.011   0.940   0.936   1.113   1.016   1.031   1.010   0.922   0.977   0.996   1.035   1.065   0.983   0.931   0.999   0.948   1.032   0.975   1.098   1.226   1.180   1.057   0.911
    21.00    0.988   0.822   1.019   1.085   1.066   1.042   1.019   0.930   0.871   0.937   0.914   0.823   0.886   0.829   0.929   0.991   0.938   0.921   0.894   0.903   0.944   0.977   1.043   0.941   0.995   0.985   0.924   1.024   1.013   1.037   0.941   0.928   0.960   0.896   1.025   1.021   1.155   1.168   1.173   1.114   0.957
    11.00    0.940   0.948   1.108   1.191   1.141   1.079   0.967   0.891   0.885   0.973   0.911   0.889   0.863   0.895   0.923   0.915   0.977   0.921   0.977   1.022   0.984   1.019   1.114   0.978   0.938   0.980   0.961   0.966   0.987   1.058   1.056   1.079   0.974   0.894   0.870   1.044   1.124   1.113   1.161   1.149   1.008
     1.00    0.974   1.063   1.126   1.132   1.034   0.951   0.938   0.954   0.991   1.007   0.972   0.849   0.928   0.862   0.876   0.945   0.942   1.004   0.898   0.951   0.991   1.074   1.063   1.001   0.966   0.997   1.003   0.962   0.975   1.042   1.061   1.043   1.000   0.988   0.919   1.050   1.091   1.158   1.079   1.029   1.013

   Mean standard deviation across all grid points:
      u component:    0.968 m/s
      v component:    0.969 m/s
      w component:    0.976 m/s


U-component (X) statistics from the interpolated hub point:

   Mean =  10.0066 m/s
   TI   =   9.8436 %


Processing complete.  8.5156 CPU seconds used.
