
This summary file was generated by TurbSim (from OpenFAST-v3.4.1) on 25-Nov-2024 at 22:30:40.


Runtime Options:

      2044  Random seed #1
         0  Random seed #2
         F  Output binary HH turbulence parameters?
         F  Output formatted turbulence parameters?
         F  Output AeroDyn HH files?
         T  Output AeroDyn FF files?
         F  Output BLADED FF files?
         F  Output tower data?
         F  Output HAWC FF files?
         F  Output formatted FF files?
         T  Output coherent turbulence time step file?
 0 -  NONE  IEC turbulence models scaled to exact specified standard deviation


Turbine/Model Specifications:

        31  Vertical grid-point matrix dimension
        41  Horizontal grid-point matrix dimension
     0.100  Time step [seconds]
   200.000  Analysis time [seconds]
   200.000  Usable output time [seconds]
   151.000  Hub height [m]
   300.000  Grid height [m]
   600.000  Grid width [m]
     0.000  Vertical flow angle [degrees]
     0.000  Horizontal flow angle [degrees]


Meteorological Boundary Conditions:

    IECVKM  IEC von Karman spectral model
         1  IEC standard: IEC 61400-1 Ed. 2: 1999
    10.000  Percent turbulence intensity, IEC 61400-1 Ed. 2: 1999
       NTM  IEC Normal Turbulence Model
       N/A  IEC Extreme Turbulence Model (ETM) "c" parameter [m/s]
       PL   Wind profile type
   150.000  Reference height [m]
    10.000  Reference wind speed [m/s]
       N/A  Jet height [m]
     0.100  Power law exponent
     0.030  Surface roughness length [m]


Non-IEC Meteorological Boundary Conditions:

       N/A  Site latitude [degrees]
       N/A  Gradient Richardson number
       N/A  Friction or shear velocity [m/s]
       N/A  Mixing layer depth [m]
       N/A  Mean hub u'w' Reynolds stress
       N/A  Mean hub u'v' Reynolds stress
       N/A  Mean hub v'w' Reynolds stress


Spatial Coherence Models:

       IEC  u-component coherence model
       IEC  v-component coherence model
       IEC  w-component coherence model
(   12.000, 0.659E-03)  u-component coherence parameters
(   12.000, 0.659E-03)  v-component coherence parameters
(   12.000, 0.659E-03)  w-component coherence parameters
       N/A  Coherence exponent


You have requested that the following file(s) be generated:

   ./TurbulentWind_20WT/FOWTs/Wind\InflowWind_High_WT20.bts (AeroDyn/TurbSim full-field wind file)


Turbulence Simulation Scaling Parameter Summary:

   Turbulence model used                            =  IEC von Karman
   Turbulence characteristic                        =  User-specified
   IEC standard                                     =  IEC 61400-1 Ed. 2: 1999
   Mean wind speed at hub height                    =   10.007 m/s
   Characteristic value of standard deviation       =    1.001 m/s
   Turbulence scale                                 =   21.000 m
   Isotropic integral scale                         =   73.500 m
   Characteristic value of hub turbulence intensity =   10.000%
   Gradient Richardson number                       =    0.000

   Wind profile type                                =  Power law
   Power law exponent                               =    0.100
   Mean shear across rotor disk                     =    0.016 (m/s)/m
   Assumed rotor diameter                           =  300.000 m
   Surface roughness length                         =    0.030 m

   Nyquist frequency of turbulent wind field        =    5.000 Hz

   Number of time steps in the FFT                  =     2600
   Number of time steps output                      =     2600
   Number of points simulated                       =     1271


Mean Flow Angles:

   Vertical   =   0.0 degrees
   Horizontal =   0.0 degrees

Mean Wind Speed Profile:

   Height    Wind Speed   Horizontal Angle  Vertical Angle  U-comp (X)   V-comp (Y)   W-comp (Z)
     (m)        (m/s)         (degrees)       (degrees)       (m/s)        (m/s)        (m/s)   
   ------    ----------   ----------------  --------------  ----------   ----------   ----------
    301.0       10.72            0.00            0.00         10.72         0.00         0.00
    291.0       10.69            0.00            0.00         10.69         0.00         0.00
    281.0       10.65            0.00            0.00         10.65         0.00         0.00
    271.0       10.61            0.00            0.00         10.61         0.00         0.00
    261.0       10.57            0.00            0.00         10.57         0.00         0.00
    251.0       10.53            0.00            0.00         10.53         0.00         0.00
    241.0       10.49            0.00            0.00         10.49         0.00         0.00
    231.0       10.44            0.00            0.00         10.44         0.00         0.00
    221.0       10.40            0.00            0.00         10.40         0.00         0.00
    211.0       10.35            0.00            0.00         10.35         0.00         0.00
    201.0       10.30            0.00            0.00         10.30         0.00         0.00
    191.0       10.24            0.00            0.00         10.24         0.00         0.00
    181.0       10.19            0.00            0.00         10.19         0.00         0.00
    171.0       10.13            0.00            0.00         10.13         0.00         0.00
    161.0       10.07            0.00            0.00         10.07         0.00         0.00
    151.0       10.01            0.00            0.00         10.01         0.00         0.00
    141.0        9.94            0.00            0.00          9.94         0.00         0.00
    131.0        9.87            0.00            0.00          9.87         0.00         0.00
    121.0        9.79            0.00            0.00          9.79         0.00         0.00
    111.0        9.70            0.00            0.00          9.70         0.00         0.00
    101.0        9.61            0.00            0.00          9.61         0.00         0.00
     91.0        9.51            0.00            0.00          9.51         0.00         0.00
     81.0        9.40            0.00            0.00          9.40         0.00         0.00
     71.0        9.28            0.00            0.00          9.28         0.00         0.00
     61.0        9.14            0.00            0.00          9.14         0.00         0.00
     51.0        8.98            0.00            0.00          8.98         0.00         0.00
     41.0        8.78            0.00            0.00          8.78         0.00         0.00
     31.0        8.54            0.00            0.00          8.54         0.00         0.00
     21.0        8.22            0.00            0.00          8.22         0.00         0.00
     11.0        7.70            0.00            0.00          7.70         0.00         0.00
      1.0        6.06            0.00            0.00          6.06         0.00         0.00


Harvested Random Seeds after Generation of the Random Numbers:

   1854507873 Harvested seed # 1
   1971657505 Harvested seed # 2


Hub-Height Simulated Turbulence Statistical Summary:

   Type of Wind        Min (m/s)   Mean (m/s)    Max (m/s)  Sigma (m/s)       TI (%)
   ----------------    ---------   ----------    ---------  -----------       ------
   Longitudinal (u)         7.14        10.01        13.34        0.985        9.842
   Lateral (v)             -2.69         0.00         2.91        0.978        9.772
   Vertical (w)            -3.64         0.00         3.15        1.120       11.196
   U component              7.14        10.01        13.34        0.985        9.842
   V component             -2.69         0.00         2.91        0.978        9.772
   W component             -3.64         0.00         3.15        1.120       11.196
   Horizontal (U&V)         7.14        10.05        13.47        0.994        9.885
   Total                    7.23        10.12        13.51        0.974        9.631

                       Min Reynolds     Mean Reynolds    Max Reynolds    Correlation
   Product             Stress (m/s)^2   Stress (m/s)^2   Stress (m/s)^2  Coefficient
   ----------------    --------------   --------------   --------------  -----------
   u'w'                     -6.662            -0.162             5.186        -0.146
   u'v'                     -7.137            -0.007             7.070        -0.007
   v'w'                     -4.694            -0.024             6.608        -0.022


   Friction Velocity (Ustar)  =      0.402 m/s
   Maximum Instantaneous TKE  =      8.984 (m/s)^2
   Maximum Instantaneous CTKE =      4.309 (m/s)^2


Grid Point Variance Summary:

   Y-coord -300.00 -285.00 -270.00 -255.00 -240.00 -225.00 -210.00 -195.00 -180.00 -165.00 -150.00 -135.00 -120.00 -105.00  -90.00  -75.00  -60.00  -45.00  -30.00  -15.00    0.00   15.00   30.00   45.00   60.00   75.00   90.00  105.00  120.00  135.00  150.00  165.00  180.00  195.00  210.00  225.00  240.00  255.00  270.00  285.00  300.00

   Height   Standard deviation at grid points for the u component:
   301.00    0.786   0.840   0.907   0.900   0.947   0.881   0.860   0.943   1.045   1.002   0.965   0.936   0.947   1.036   1.067   1.033   1.041   1.127   1.031   0.970   1.084   1.014   0.917   0.937   0.895   1.023   0.994   0.943   1.016   1.002   1.013   1.021   1.063   1.101   1.001   0.944   0.913   0.866   0.941   0.908   0.866
   291.00    0.904   0.824   0.838   0.930   0.888   0.828   0.856   0.853   1.029   1.025   0.900   0.978   1.004   1.033   1.057   1.053   1.180   1.079   1.061   0.966   0.886   0.921   0.946   0.842   0.932   1.099   1.028   0.947   0.977   0.997   1.005   0.917   1.190   1.098   0.950   0.859   0.843   0.847   0.978   0.869   0.915
   281.00    0.845   0.830   0.863   0.947   0.835   0.956   0.800   0.923   0.998   1.073   0.991   0.955   1.088   0.950   1.146   1.031   0.976   1.066   1.085   1.123   0.914   0.933   0.934   0.906   0.958   1.044   0.961   0.943   1.047   0.990   0.956   1.061   1.161   1.163   0.953   0.880   0.822   0.887   0.896   0.774   0.802
   271.00    0.907   0.936   0.943   0.921   0.900   0.907   0.913   0.860   0.994   0.988   1.105   1.108   1.015   1.045   1.085   1.032   0.925   1.077   1.093   1.055   0.992   1.010   1.016   0.966   0.939   1.045   1.123   1.074   1.082   0.958   0.970   0.959   0.948   1.037   0.892   0.963   0.946   0.889   0.825   0.770   0.947
   261.00    0.960   0.906   0.869   0.919   0.876   0.987   0.929   0.974   0.954   0.935   1.076   1.107   1.083   1.102   1.120   1.035   0.963   1.104   0.999   0.967   0.947   0.983   0.875   0.934   1.091   1.105   1.049   1.078   1.083   1.010   0.932   1.008   1.014   0.968   0.866   0.903   0.870   0.864   0.839   0.835   0.927
   251.00    0.935   0.971   0.911   0.815   0.882   0.993   1.017   1.077   1.037   0.914   0.952   0.986   1.065   1.071   1.115   1.040   1.106   1.129   0.905   0.859   0.875   0.864   0.747   0.906   1.059   1.116   1.115   1.053   1.056   0.933   0.959   1.004   0.949   0.877   0.919   0.758   0.828   0.881   0.846   0.844   0.910
   241.00    0.994   1.038   1.014   0.827   0.886   0.940   0.950   1.029   1.012   0.877   0.889   0.941   1.013   1.029   0.925   1.053   1.121   1.039   0.915   0.865   0.937   0.752   0.813   0.960   1.017   1.056   1.025   0.937   0.948   0.933   0.993   1.013   0.843   0.975   0.902   0.790   0.890   0.832   0.777   0.929   0.950
   231.00    0.944   0.975   1.019   0.843   0.827   0.915   0.926   0.921   0.946   0.930   0.950   0.963   1.052   0.931   1.042   1.048   1.012   0.967   1.057   0.915   0.873   0.905   0.945   0.843   0.963   1.080   0.947   0.802   0.926   0.853   0.982   0.929   0.875   0.944   1.037   0.889   0.867   0.907   0.860   0.855   0.839
   221.00    1.037   1.067   1.063   0.816   0.750   0.898   0.872   0.938   1.014   1.035   1.022   1.035   1.103   1.127   1.040   0.993   1.059   1.047   0.881   1.049   0.914   0.939   0.925   0.836   0.963   0.957   0.907   0.870   0.854   1.015   0.924   0.917   0.864   0.972   1.012   0.922   0.896   0.944   0.878   0.841   0.880
   211.00    0.891   1.024   1.021   0.904   0.756   0.867   1.034   0.922   0.889   0.924   1.084   1.072   1.027   1.027   1.064   0.987   1.081   1.045   0.959   0.996   1.025   0.900   0.832   0.823   0.975   0.894   0.878   0.903   0.916   0.935   0.930   0.883   0.839   0.955   0.886   0.872   0.920   0.983   0.915   0.752   0.811
   201.00    0.860   0.862   0.954   0.875   0.748   0.854   0.978   0.902   0.985   0.935   1.069   0.992   0.937   1.034   1.023   1.016   1.075   1.133   1.108   0.945   1.000   0.834   0.875   0.977   1.024   0.911   0.924   0.810   0.924   0.874   0.850   0.888   0.761   0.946   0.849   0.800   0.859   0.920   0.962   0.829   0.885
   191.00    0.833   0.803   0.885   0.782   0.772   0.849   0.954   0.950   0.915   1.048   1.059   1.014   0.863   0.904   1.109   1.061   1.017   1.166   1.101   1.168   1.141   0.867   0.926   0.934   1.031   0.950   0.958   0.777   0.927   0.876   0.921   0.802   0.892   0.969   0.885   0.840   0.884   0.975   0.864   0.808   0.828
   181.00    0.768   0.868   0.871   0.810   0.883   0.885   0.861   0.910   0.939   0.925   0.986   0.962   0.884   0.941   1.072   0.971   1.002   1.038   1.029   1.069   1.032   0.862   1.071   1.098   1.056   0.922   0.905   0.795   0.951   1.036   0.779   0.926   0.931   0.934   0.936   0.769   0.853   0.881   0.918   0.893   0.784
   171.00    0.881   0.852   0.788   0.852   0.882   0.915   0.887   0.809   0.875   0.897   0.899   0.902   0.910   1.083   1.053   1.015   0.998   0.944   1.089   1.033   1.027   0.991   1.090   1.172   1.093   0.924   0.839   0.864   0.900   0.986   0.888   0.975   0.964   0.849   0.890   0.930   0.854   0.865   0.922   0.888   0.879
   161.00    0.908   0.813   0.863   0.870   0.908   0.842   0.959   0.917   0.961   0.924   0.922   0.874   0.978   1.171   1.071   1.017   0.974   0.923   1.065   1.023   1.007   0.822   1.070   1.089   0.949   0.953   0.857   0.830   0.798   0.954   0.893   1.025   0.900   0.887   0.904   0.901   0.828   0.796   0.947   0.888   0.869
   151.00    0.861   0.849   0.935   0.997   0.958   0.886   0.918   0.866   0.801   0.872   0.786   0.867   0.925   1.052   1.150   1.013   1.016   0.931   0.954   1.015   0.985   1.000   1.015   0.977   0.940   0.876   0.847   0.852   0.829   0.859   0.816   0.946   0.905   0.854   0.817   0.845   0.789   0.863   0.908   0.851   0.803
   141.00    0.783   0.819   0.912   0.885   0.827   0.886   0.993   0.836   0.748   0.861   0.869   0.884   0.945   1.019   1.091   1.076   0.984   0.960   0.925   0.949   1.043   1.010   0.932   0.892   0.828   0.888   0.846   0.864   0.873   0.874   0.820   0.985   0.872   0.768   0.769   0.837   0.914   0.763   0.871   0.841   0.907
   131.00    0.894   0.829   0.883   0.832   0.804   0.884   0.915   0.937   0.819   0.865   0.860   0.901   0.940   1.070   1.032   1.075   0.989   0.925   1.066   0.954   0.949   0.982   0.953   1.039   0.897   0.956   0.991   0.831   0.920   0.851   0.875   0.987   0.874   0.858   0.858   0.975   0.837   0.814   1.021   0.884   0.966
   121.00    0.898   0.889   0.897   0.817   0.964   0.922   0.901   0.871   0.832   0.821   0.822   0.837   0.897   0.966   1.032   1.047   0.801   0.923   1.051   1.077   0.874   0.788   0.937   0.910   0.962   0.956   0.919   0.869   0.852   0.909   0.856   0.909   0.950   0.974   0.965   1.020   0.940   0.930   1.016   0.987   0.942
   111.00    0.853   0.915   0.883   0.886   0.910   0.943   0.964   0.828   0.800   0.828   0.878   0.806   0.909   0.929   0.971   0.980   0.845   1.023   1.000   0.977   0.877   0.902   0.973   0.980   0.914   0.902   0.915   0.963   0.771   0.807   0.846   0.807   0.892   0.952   1.167   0.994   1.076   0.993   0.939   0.970   1.029
   101.00    0.912   0.854   0.996   1.036   1.119   0.922   0.916   0.865   0.856   0.828   0.844   0.828   0.820   0.916   1.009   0.995   0.938   0.960   0.950   0.963   0.815   0.841   0.914   0.888   0.861   0.976   0.840   0.884   0.884   0.822   0.811   0.824   0.850   0.958   1.045   1.024   0.920   0.977   0.930   0.918   1.026
    91.00    1.114   0.987   0.957   1.040   1.049   1.025   0.843   0.917   0.836   0.797   0.856   0.856   0.802   0.775   1.028   0.932   0.924   0.854   0.910   0.865   0.795   0.821   0.850   0.870   0.804   0.881   0.855   0.877   0.873   0.849   0.857   0.845   0.843   0.938   0.989   1.086   0.950   0.863   0.895   0.945   1.103
    81.00    1.121   0.944   0.976   1.039   1.068   0.984   0.897   0.854   0.860   0.836   0.842   0.796   0.855   0.861   1.011   0.883   0.895   0.880   0.968   0.794   0.814   0.859   0.825   0.885   0.836   0.902   0.842   0.851   0.884   0.888   0.887   0.798   0.831   0.823   0.969   0.980   1.002   0.862   0.859   0.885   1.033
    71.00    1.022   1.046   1.083   1.034   0.926   0.906   0.906   0.908   0.877   0.913   0.836   0.897   0.789   0.942   0.969   0.892   0.840   0.950   0.866   0.890   0.773   0.888   0.875   0.984   0.945   0.950   0.996   0.840   0.863   0.817   0.815   0.812   0.933   0.829   0.972   0.903   0.983   0.886   0.871   0.996   1.001
    61.00    0.989   1.022   1.041   1.096   0.987   0.868   0.933   0.818   0.848   0.945   0.930   0.798   0.798   0.878   0.865   0.953   0.921   0.976   0.874   0.764   0.780   1.003   0.992   0.912   0.956   0.984   0.931   0.859   0.851   0.773   0.801   0.863   0.894   0.915   1.014   0.898   0.922   0.839   0.996   1.038   1.084
    51.00    0.978   0.960   1.055   1.013   0.955   0.772   0.873   0.809   0.869   0.852   0.844   0.776   0.860   0.931   0.750   0.907   0.937   0.908   0.891   0.806   0.829   0.933   0.926   0.872   0.911   0.921   0.889   0.911   0.828   0.812   0.770   0.844   0.926   0.920   1.002   0.964   0.977   0.840   0.933   1.029   1.011
    41.00    0.932   0.911   1.099   1.029   1.004   0.929   0.939   0.870   0.834   0.864   0.876   0.894   0.905   0.952   0.872   0.932   0.854   0.914   0.797   0.729   0.883   0.983   1.033   0.942   0.906   0.924   0.930   0.908   0.807   0.858   0.884   1.016   0.984   0.904   0.949   0.962   0.938   0.887   0.906   0.935   0.895
    31.00    1.044   1.052   1.059   1.075   1.086   0.996   1.003   0.902   0.814   0.798   0.917   0.982   0.903   1.054   0.896   0.907   0.748   0.827   0.698   0.740   0.908   1.019   0.984   0.919   0.932   0.847   0.873   0.894   0.704   0.779   0.901   1.035   1.032   0.934   0.833   0.821   0.853   0.846   1.007   0.902   0.899
    21.00    1.015   1.053   1.056   0.971   1.031   1.016   0.906   0.807   0.880   0.870   0.973   0.989   1.074   0.969   0.890   0.828   0.810   0.843   0.789   0.884   0.931   0.906   0.865   0.880   1.012   0.899   0.857   0.710   0.798   0.803   0.954   1.048   1.067   1.053   0.847   0.787   0.842   0.923   0.919   0.918   1.008
    11.00    0.994   0.977   1.018   0.958   0.936   0.990   0.916   0.824   0.840   1.023   1.159   0.996   1.076   0.977   0.905   0.992   1.026   0.944   0.783   0.793   0.898   0.895   0.832   0.854   1.043   0.873   0.815   0.807   0.802   0.890   0.895   1.015   1.014   0.983   0.922   0.858   0.895   0.935   0.886   0.907   1.016
     1.00    0.963   1.026   0.960   0.920   0.785   0.876   0.956   0.930   0.912   1.061   1.069   1.000   1.131   1.009   0.943   0.979   1.050   0.930   0.878   0.845   0.793   0.863   0.769   0.899   1.063   0.860   0.833   0.852   0.805   0.865   0.850   0.927   1.036   1.024   0.955   0.882   0.909   0.898   0.926   0.854   0.967

   Height   Standard deviation at grid points for the v component:
   301.00    0.977   0.995   0.857   0.872   0.870   0.952   0.965   0.905   0.960   0.960   1.024   0.949   0.983   0.860   0.895   0.942   0.915   0.928   0.928   0.826   0.868   0.879   0.893   0.894   0.842   0.973   1.031   1.000   0.987   1.043   0.934   0.995   0.885   0.885   0.895   0.918   1.029   0.984   1.062   1.042   1.030
   291.00    0.948   1.085   0.955   0.955   0.889   0.964   0.964   0.938   0.947   1.032   1.136   0.985   0.935   0.894   0.917   1.004   0.916   0.910   0.960   0.913   0.954   0.938   0.886   0.858   0.950   0.957   1.070   0.938   0.932   0.951   0.997   1.017   1.012   1.015   0.983   1.006   0.969   0.880   1.014   0.999   0.999
   281.00    0.988   1.066   0.975   0.988   0.985   0.873   0.982   1.090   1.050   1.081   1.050   1.022   0.942   0.879   0.910   1.004   0.978   0.955   0.931   0.915   0.953   0.912   0.826   0.922   0.944   0.974   0.951   0.900   0.978   1.020   1.136   1.015   1.047   0.980   0.966   0.939   0.961   0.897   0.991   1.082   1.083
   271.00    1.044   1.024   1.025   0.980   1.091   0.960   0.925   1.017   1.010   1.022   1.078   0.988   0.965   1.025   0.982   1.005   0.979   0.974   0.961   1.014   0.972   0.828   0.798   0.823   0.962   1.040   0.936   0.979   0.977   1.103   1.112   1.024   1.058   1.094   0.931   0.921   0.918   0.860   0.962   0.970   1.027
   261.00    1.100   1.042   1.048   1.036   1.065   0.969   0.998   1.008   1.006   0.928   0.994   1.011   0.989   0.939   0.982   0.958   0.925   1.030   0.976   0.937   0.921   0.872   0.808   0.915   0.969   0.943   0.989   1.038   1.021   1.148   1.185   1.021   1.059   1.071   0.945   0.955   0.927   0.822   0.924   0.979   0.972
   251.00    1.058   0.984   0.950   1.009   1.060   1.041   1.038   1.022   0.991   0.947   0.868   0.922   1.055   1.037   0.994   0.889   0.879   1.069   0.893   0.864   0.911   0.802   0.836   1.007   0.943   0.943   0.954   1.104   1.008   1.221   1.154   1.033   1.071   0.977   1.041   0.893   0.831   0.985   0.861   1.023   0.955
   241.00    0.961   0.906   0.966   0.939   1.089   0.951   1.033   0.962   1.013   0.872   0.929   1.076   1.049   1.046   1.021   1.076   0.957   1.002   0.992   0.923   0.903   0.833   0.947   1.003   1.020   1.042   1.061   1.041   1.067   1.120   1.053   1.088   1.021   0.927   0.943   0.877   0.866   0.891   0.904   0.996   0.920
   231.00    0.966   1.004   1.007   1.020   1.034   0.979   0.975   0.922   0.955   0.963   1.041   1.055   1.075   1.054   1.023   1.022   0.969   1.188   0.978   0.915   0.926   0.869   0.982   0.992   1.031   1.127   1.045   1.046   1.072   1.048   1.037   1.037   1.020   0.960   0.941   0.986   0.933   0.905   0.856   0.923   0.883
   221.00    1.116   1.138   0.975   0.998   0.926   0.972   0.996   0.921   0.830   0.997   1.028   1.063   1.063   0.967   1.021   1.001   1.102   1.162   1.116   0.903   1.007   0.970   1.046   1.079   1.159   1.031   1.026   1.015   1.006   1.080   1.018   1.034   1.058   0.890   0.938   1.055   0.970   0.900   0.876   0.938   0.899
   211.00    1.021   1.107   1.016   1.018   0.919   0.958   0.941   0.799   0.948   0.960   0.859   1.110   1.025   0.947   0.928   0.907   1.051   1.142   1.016   0.977   0.975   1.144   1.104   1.041   1.101   0.975   0.975   0.958   0.948   1.056   1.038   0.982   0.971   0.905   0.946   1.000   0.983   0.967   0.892   0.909   0.940
   201.00    1.053   1.121   1.166   0.964   0.960   0.984   0.907   0.950   0.941   0.945   0.981   1.018   0.954   0.846   0.952   0.971   0.992   0.994   1.034   1.038   1.125   1.264   1.196   1.070   1.021   1.001   0.888   0.935   0.978   0.892   0.930   0.908   0.959   0.913   0.902   0.879   1.009   0.935   0.950   0.957   0.981
   191.00    1.060   1.114   1.095   0.984   0.960   1.027   0.964   0.884   0.907   0.873   0.938   0.953   0.864   0.883   1.028   0.927   1.024   0.976   0.971   0.977   1.149   1.241   1.182   1.185   0.909   0.994   0.982   0.961   0.927   0.929   0.826   0.896   0.942   0.918   0.942   0.890   0.929   1.073   0.917   0.999   0.959
   181.00    1.051   1.008   1.046   1.038   0.910   1.010   1.097   0.906   0.881   0.949   0.953   0.987   0.986   1.009   0.926   0.897   0.949   0.966   1.053   0.935   1.078   1.054   1.112   1.060   0.946   0.967   1.027   1.042   0.908   0.868   0.931   0.869   0.870   0.923   0.957   0.903   1.005   0.993   0.989   0.938   0.960
   171.00    1.106   0.994   0.967   1.089   1.051   1.027   1.062   0.944   0.886   0.985   0.973   0.933   0.996   0.975   0.933   1.001   1.003   0.955   1.082   0.899   0.984   1.002   1.063   0.995   0.919   0.955   1.049   0.989   0.907   0.941   0.984   0.977   0.848   0.881   1.027   0.912   0.907   0.961   0.935   0.913   0.980
   161.00    1.061   1.123   1.042   1.028   1.080   1.039   0.985   1.019   0.912   1.048   0.983   0.922   0.959   0.951   1.030   1.097   1.093   0.997   1.162   0.958   1.028   0.992   1.099   1.053   0.908   0.895   0.985   1.011   0.912   0.918   0.891   0.972   0.936   0.970   1.003   0.969   0.924   0.958   0.957   0.851   0.988
   151.00    0.945   1.087   0.982   1.037   0.975   0.989   1.014   1.058   0.976   1.016   1.007   0.944   0.928   0.947   1.069   1.091   0.989   0.993   1.066   0.963   0.978   1.062   1.074   1.047   0.939   0.966   0.912   1.003   0.899   0.922   0.975   0.969   0.927   1.018   0.989   0.924   0.933   1.022   0.902   0.947   0.950
   141.00    1.058   0.984   1.024   0.985   0.957   0.866   0.988   0.908   0.954   0.933   1.021   1.099   1.002   0.958   1.002   0.894   0.897   0.977   0.967   0.925   1.064   1.099   1.019   1.035   0.975   1.070   0.978   0.934   0.892   0.958   1.000   0.955   0.884   1.025   1.078   1.015   0.948   0.913   0.882   0.838   0.869
   131.00    1.098   1.035   1.073   1.050   1.008   0.903   0.974   0.951   0.988   0.988   0.974   1.030   0.938   0.986   0.978   0.908   0.866   0.952   0.967   0.960   1.090   0.989   0.997   1.024   1.005   1.099   1.006   1.004   0.876   0.904   0.896   0.988   0.916   0.970   1.037   1.003   0.959   0.907   0.867   0.922   0.832
   121.00    1.006   1.076   1.038   0.979   1.052   1.003   1.015   0.971   0.945   1.007   0.954   0.948   0.961   0.964   0.901   0.833   0.901   0.959   1.075   1.059   1.125   1.110   1.026   1.039   0.998   1.082   1.012   0.982   0.904   0.946   1.018   1.048   1.015   0.955   1.014   0.977   0.995   0.841   0.848   0.886   0.942
   111.00    1.023   1.013   1.059   0.955   1.010   0.877   0.957   0.998   0.959   0.998   0.991   0.944   1.005   1.033   0.872   0.855   0.799   0.839   1.020   1.081   1.107   1.091   1.094   0.845   0.977   0.988   0.970   1.041   1.023   1.025   0.883   1.090   1.024   0.958   1.039   1.132   1.009   0.850   0.907   0.970   0.809
   101.00    0.966   1.030   1.033   1.034   0.944   1.012   0.941   0.972   0.854   0.916   0.959   0.926   1.057   0.936   0.912   0.891   0.875   0.999   0.924   1.085   1.118   1.035   1.003   0.909   0.944   0.984   0.968   1.032   0.993   0.996   0.972   0.961   1.029   1.077   1.152   1.035   0.951   0.866   1.025   1.048   0.927
    91.00    1.059   1.131   1.037   1.089   0.954   1.156   1.109   1.048   0.928   0.959   0.923   0.870   1.042   1.037   0.924   0.897   0.911   0.921   0.975   1.036   1.073   1.073   1.073   0.926   0.955   0.914   1.022   1.107   1.000   0.960   1.059   0.931   0.993   0.946   0.995   0.973   0.950   0.999   1.029   1.075   1.006
    81.00    1.008   1.174   1.180   1.133   1.116   1.121   1.096   1.106   0.986   0.982   0.863   0.864   1.018   0.904   0.934   0.862   0.891   0.979   1.037   0.973   1.041   1.106   1.028   1.100   0.968   0.939   0.987   1.059   0.966   0.929   0.967   0.940   0.935   0.956   1.052   0.937   0.946   0.969   0.945   1.031   0.943
    71.00    0.982   1.066   1.186   1.069   1.056   1.189   1.180   1.050   0.985   0.971   0.854   0.869   0.984   0.831   0.886   0.913   0.882   0.939   0.961   0.944   0.985   0.990   1.089   1.123   1.019   0.904   0.959   1.005   0.975   0.996   0.999   0.918   0.913   0.959   0.902   0.967   0.936   0.922   0.907   1.011   0.964
    61.00    0.994   1.097   1.152   1.146   1.188   1.106   1.112   0.997   0.910   0.913   0.865   0.871   0.898   0.925   0.917   0.815   0.987   0.950   0.912   0.913   0.955   1.097   1.115   1.088   1.011   0.955   0.959   1.053   1.036   1.017   0.973   1.071   0.902   0.982   0.929   0.907   0.894   0.971   0.936   0.951   1.007
    51.00    1.027   1.073   1.052   1.131   1.052   1.084   1.009   1.007   0.907   0.848   0.839   0.916   0.902   0.938   0.956   0.948   1.017   1.001   0.976   0.920   0.965   1.001   1.109   1.017   1.048   0.857   0.934   1.009   1.065   1.001   1.038   1.014   0.937   0.903   0.979   0.960   0.969   0.957   0.926   0.917   1.061
    41.00    1.083   0.983   1.017   1.105   1.046   1.102   0.962   0.919   0.921   0.916   0.842   0.915   0.942   1.001   0.952   1.006   0.880   0.940   0.969   0.861   0.920   0.980   1.057   0.969   1.021   0.912   0.894   1.016   0.994   0.845   1.038   1.095   0.985   0.961   0.997   1.005   1.035   0.992   1.106   1.025   1.056
    31.00    0.948   1.006   1.081   1.040   0.973   1.008   0.966   0.902   0.926   0.998   0.900   0.967   0.949   0.990   0.967   0.987   0.814   0.960   1.020   0.904   0.861   0.988   0.993   0.946   0.983   0.822   0.860   0.916   0.986   0.926   1.025   1.074   0.981   0.976   0.949   1.063   0.984   1.078   0.986   1.135   1.067
    21.00    0.931   0.999   1.032   0.995   0.921   0.938   0.951   0.922   1.031   1.015   1.080   1.063   0.947   0.947   1.034   1.107   0.994   1.041   1.038   0.968   0.960   0.946   0.886   0.934   0.867   0.933   0.849   0.950   0.929   0.967   1.001   0.969   0.928   1.070   1.147   1.059   1.051   1.082   1.009   1.185   1.103
    11.00    0.989   0.991   1.007   0.985   1.016   0.979   0.966   1.087   1.101   1.054   0.974   1.026   0.993   0.938   0.974   1.056   1.068   1.014   1.025   0.922   0.977   0.921   0.894   0.897   0.953   0.819   0.840   0.891   0.881   0.916   0.890   1.037   0.961   0.986   1.133   1.108   1.056   1.125   1.073   1.046   1.146
     1.00    0.974   1.014   0.961   0.994   1.037   0.967   1.011   1.071   1.054   1.032   0.940   0.900   0.951   0.899   1.004   1.037   0.922   1.064   0.995   1.060   1.106   0.945   0.917   0.901   0.864   0.821   0.878   0.919   0.873   0.943   0.948   0.936   1.010   1.016   1.056   1.178   1.119   1.165   1.061   1.027   1.074

   Height   Standard deviation at grid points for the w component:
   301.00    1.016   1.019   0.970   0.911   1.034   0.986   1.088   0.976   0.988   1.004   0.955   0.939   1.010   0.868   0.991   0.975   0.961   0.935   0.867   0.955   0.861   0.949   0.917   0.966   0.920   0.941   1.020   1.051   1.035   1.085   0.831   0.960   0.977   0.995   1.053   1.033   1.047   0.986   1.018   1.036   1.126
   291.00    0.995   1.113   0.939   0.941   0.952   0.903   1.035   1.014   0.977   1.015   0.973   0.967   0.963   0.938   0.936   0.902   0.911   0.995   0.971   0.872   0.901   0.857   0.853   0.906   0.981   0.878   0.915   0.968   1.046   1.025   0.961   0.917   0.905   0.978   1.098   1.150   1.094   1.052   0.959   0.965   1.048
   281.00    1.085   1.062   1.037   0.994   0.974   0.850   1.003   0.995   1.058   0.968   0.954   0.897   0.904   0.904   0.970   0.978   1.087   1.077   0.903   0.810   0.878   0.884   0.925   0.922   0.959   0.980   0.868   0.917   1.033   0.957   0.950   0.934   0.843   0.917   0.961   1.089   1.044   1.066   1.008   0.983   0.969
   271.00    1.091   1.094   0.957   0.934   0.971   0.845   0.886   0.995   1.020   1.026   0.983   0.887   0.971   0.931   0.866   0.985   0.985   0.954   0.977   0.821   0.783   0.904   0.951   1.035   0.966   0.933   0.855   0.962   1.001   1.015   1.045   0.944   0.869   0.897   0.940   1.041   0.984   1.137   1.105   1.042   0.966
   261.00    0.995   1.009   1.087   0.915   0.969   0.881   0.916   0.997   0.915   1.038   0.969   0.897   0.910   0.835   1.000   0.945   0.889   0.934   0.978   0.885   0.926   0.908   0.998   0.976   0.980   0.938   1.001   0.910   0.918   0.972   1.036   1.063   0.922   0.902   0.962   0.965   0.996   1.054   0.994   1.089   0.998
   251.00    0.920   0.959   1.073   0.967   0.898   0.947   0.956   0.982   1.033   1.016   0.944   0.922   0.985   0.889   0.948   0.979   0.927   0.896   0.990   0.948   0.962   1.013   0.995   1.056   0.904   0.976   1.011   0.976   0.919   0.966   1.019   0.945   0.879   0.838   0.882   0.878   1.055   1.041   0.975   1.003   1.034
   241.00    0.906   0.942   1.023   0.872   0.919   0.964   0.933   0.988   0.896   0.930   0.855   0.895   0.944   0.982   1.001   0.997   0.985   0.908   0.900   0.968   1.022   1.024   1.046   0.985   0.919   0.872   0.984   0.957   0.876   0.991   0.933   0.858   0.835   0.877   0.964   0.938   1.043   1.110   1.081   1.023   1.029
   231.00    0.953   0.874   1.000   0.874   0.897   0.978   0.847   0.955   0.917   0.897   0.951   0.894   0.844   0.874   1.044   1.023   1.034   0.917   0.920   0.976   0.924   0.963   0.896   0.944   0.975   0.848   0.922   0.989   0.893   0.978   0.940   0.876   0.869   0.996   1.084   1.015   1.055   1.152   1.147   1.045   1.017
   221.00    0.970   0.974   0.945   0.942   0.927   0.891   0.958   0.928   0.881   0.950   0.948   0.917   0.836   0.868   0.965   1.036   1.099   1.035   0.912   1.000   0.947   0.928   0.822   0.836   1.000   0.845   0.936   1.004   0.931   0.939   0.892   0.867   0.951   1.022   1.012   1.048   1.062   1.036   1.096   0.993   1.025
   211.00    0.979   1.025   0.971   0.908   0.884   0.996   0.922   0.966   0.901   0.991   0.958   0.990   0.926   0.908   1.035   1.083   1.187   1.133   1.031   1.055   0.967   0.908   0.823   0.846   0.907   0.947   0.898   0.938   0.901   0.805   0.880   0.922   0.971   1.037   1.093   0.981   1.041   1.011   1.040   1.105   0.964
   201.00    0.899   0.954   0.909   0.909   0.895   0.880   0.966   0.953   0.938   0.918   1.042   0.951   1.087   1.095   1.042   1.117   1.178   1.116   1.212   1.076   1.002   0.901   0.899   0.850   0.868   0.959   0.958   0.914   0.864   0.935   0.994   0.873   0.996   0.933   1.038   0.987   1.026   1.077   1.124   1.089   0.994
   191.00    0.887   0.830   0.922   0.791   0.861   0.847   1.008   0.996   0.883   0.901   0.940   0.993   1.222   1.077   1.008   1.077   1.217   1.170   1.272   1.177   1.048   1.022   0.948   0.890   0.857   0.934   0.944   0.890   0.886   0.916   0.961   0.871   0.938   0.933   1.014   1.039   1.015   1.058   1.144   1.016   1.002
   181.00    0.903   0.980   0.927   0.926   0.942   0.845   1.024   1.070   1.055   0.992   0.924   1.108   1.071   1.033   0.975   1.124   1.243   1.152   1.027   1.230   1.131   1.078   1.020   0.878   0.805   0.902   0.835   0.840   0.846   0.952   0.905   1.008   0.992   1.016   0.951   0.898   1.128   1.153   1.152   1.055   1.051
   171.00    0.906   0.914   0.921   0.891   0.913   0.974   0.972   1.049   1.107   1.082   1.006   1.009   1.063   1.042   1.027   1.052   1.150   1.164   1.263   1.214   1.169   1.023   0.992   0.948   0.956   0.844   0.801   0.800   0.834   1.026   0.978   0.941   1.090   1.065   0.932   1.020   1.164   1.217   1.219   1.073   0.987
   161.00    0.954   0.892   0.904   0.886   0.946   0.954   0.966   1.034   1.033   1.098   1.068   1.113   1.040   1.027   1.014   0.992   1.183   1.151   1.172   1.132   1.184   1.086   0.984   0.907   0.962   0.843   0.810   0.887   0.873   1.007   0.961   0.987   1.138   1.092   1.144   1.076   1.136   1.185   1.203   1.151   0.939
   151.00    0.920   0.955   0.901   0.922   0.914   0.954   1.049   1.021   1.036   1.047   1.068   1.059   1.092   1.067   1.085   1.027   1.236   1.049   1.060   1.090   1.120   0.946   1.024   0.983   0.909   0.877   0.840   0.947   0.950   1.123   0.996   1.035   1.177   1.079   1.152   1.077   1.118   1.154   1.072   1.114   1.087
   141.00    0.909   0.847   0.855   0.882   0.860   0.919   0.999   1.036   1.013   1.031   1.029   1.056   0.959   1.142   1.142   1.093   1.186   1.137   1.056   1.051   1.076   1.076   0.972   0.966   0.961   0.878   0.873   0.915   0.979   1.039   1.081   1.063   1.090   1.048   1.088   1.006   1.059   1.050   1.067   1.065   0.986
   131.00    0.832   0.880   1.001   1.000   0.975   1.007   1.089   1.011   0.952   0.904   1.059   0.984   0.954   1.106   1.107   1.024   1.029   1.121   0.995   1.126   1.002   1.065   0.990   1.134   1.039   0.818   0.846   0.994   1.027   1.123   1.054   1.145   0.989   0.962   0.979   0.919   0.959   0.989   1.049   1.038   0.984
   121.00    0.846   0.857   0.877   0.985   0.995   0.987   1.055   0.966   0.916   0.988   1.095   1.027   1.065   1.118   1.082   1.026   1.006   1.156   1.063   1.136   0.994   0.911   1.019   1.107   0.932   0.960   0.941   1.014   1.139   1.131   1.098   1.105   1.001   0.977   0.975   0.961   1.015   0.948   0.936   0.952   0.960
   111.00    0.933   0.896   0.910   0.935   0.876   0.930   1.033   1.014   1.037   0.924   0.956   0.956   1.107   1.047   1.060   1.025   1.033   1.033   1.025   0.984   1.067   1.100   1.097   1.078   1.017   1.013   0.986   1.117   1.075   1.127   1.073   1.070   0.994   0.945   0.994   0.962   0.958   0.852   0.883   0.971   0.887
   101.00    0.922   0.960   0.984   0.962   0.929   0.808   0.876   1.033   1.038   0.915   0.912   1.045   1.008   0.986   0.875   0.925   0.866   1.013   0.907   0.942   1.044   1.167   1.003   1.113   1.090   0.963   1.046   1.053   1.051   0.978   1.059   0.994   1.004   0.963   0.975   0.919   0.937   1.040   0.898   0.987   1.009
    91.00    0.955   1.028   0.966   0.879   0.943   0.886   0.919   1.006   1.007   0.926   0.849   1.032   1.020   0.878   0.914   0.954   0.927   0.889   0.931   0.981   1.036   1.157   1.094   1.130   1.120   1.135   1.084   1.068   1.028   0.965   1.009   0.880   1.012   0.927   0.888   1.042   0.984   1.073   0.961   1.082   1.102
    81.00    0.972   0.932   0.903   0.915   0.886   0.918   0.914   0.978   1.101   0.933   0.930   0.963   0.923   0.944   0.815   0.950   0.875   0.933   0.974   1.019   1.133   1.101   1.029   1.105   1.049   1.074   1.091   1.060   1.120   0.987   0.912   1.000   0.964   0.853   0.906   0.936   1.042   1.147   1.084   1.051   1.007
    71.00    1.012   0.964   0.928   0.976   0.867   0.916   1.058   1.102   1.005   0.909   0.956   0.995   0.957   0.989   0.825   0.912   0.945   0.962   0.948   1.040   1.054   1.142   1.089   1.135   0.945   0.951   1.075   0.977   1.041   1.007   0.956   1.000   0.960   0.954   0.942   1.078   1.078   1.013   1.008   0.967   0.993
    61.00    1.004   0.958   0.989   1.029   0.978   0.968   0.982   1.053   0.950   0.900   0.909   0.913   0.933   0.915   0.861   0.895   0.934   0.989   0.933   1.033   1.045   1.160   1.116   1.154   0.999   0.915   0.968   1.034   0.975   1.054   0.967   0.954   0.899   0.975   1.012   1.029   0.923   0.973   0.928   0.970   0.974
    51.00    1.089   1.001   1.005   1.038   0.966   0.969   0.986   0.987   0.887   0.875   0.903   0.828   0.889   0.956   0.877   0.918   1.040   1.035   1.051   0.962   0.997   0.983   1.131   1.102   1.030   0.951   0.922   0.971   1.036   0.974   0.974   0.923   0.936   0.958   0.932   0.929   0.877   0.903   1.009   0.879   0.947
    41.00    0.977   1.058   0.929   0.987   0.908   0.905   0.842   1.025   0.958   0.901   0.809   0.903   0.868   0.991   0.928   1.009   1.012   1.022   1.019   0.928   0.947   0.995   0.985   1.035   0.950   0.969   0.914   0.911   0.992   0.970   0.965   0.941   0.925   0.904   0.908   0.883   0.867   0.915   1.005   0.899   0.968
    31.00    0.901   0.895   0.893   0.899   0.977   0.935   0.960   0.925   0.993   0.775   0.827   0.879   0.936   1.056   0.954   0.981   1.026   0.994   0.942   1.041   0.901   0.979   0.891   0.943   0.943   0.912   0.941   1.015   1.020   0.932   0.920   0.973   0.953   0.957   0.943   0.967   0.973   0.968   0.976   0.959   0.936
    21.00    0.902   0.921   0.891   0.860   0.953   1.009   0.961   0.845   0.924   0.826   0.909   0.847   0.942   0.977   1.029   0.965   0.941   0.876   0.953   0.994   0.946   0.929   0.864   0.867   0.917   0.928   0.974   1.028   0.978   0.933   0.933   1.076   0.997   0.981   0.934   0.999   1.047   0.937   0.993   0.913   0.955
    11.00    0.922   0.928   0.934   0.922   1.003   1.003   0.951   0.899   0.939   1.085   1.097   0.864   0.834   0.960   0.972   0.897   0.902   0.879   0.940   0.958   1.029   0.947   0.880   0.830   0.902   0.953   1.016   1.014   0.911   0.935   1.006   1.022   1.023   0.979   0.878   1.004   0.933   0.968   0.926   0.811   0.940
     1.00    0.974   0.896   0.929   0.891   0.925   0.946   0.910   0.871   0.975   1.020   1.066   0.906   0.888   0.874   0.892   0.865   0.916   0.896   0.897   0.984   0.961   0.974   0.888   0.951   0.928   0.932   1.019   1.071   1.021   0.977   0.862   1.009   1.027   0.988   0.862   0.941   1.056   1.053   0.956   0.865   0.897

   Mean standard deviation across all grid points:
      u component:    0.931 m/s
      v component:    0.983 m/s
      w component:    0.979 m/s


U-component (X) statistics from the interpolated hub point:

   Mean =  10.0066 m/s
   TI   =   9.8417 %


Processing complete.  9.5938 CPU seconds used.
