
This summary file was generated by TurbSim (from OpenFAST-v3.4.1) on 25-Nov-2024 at 22:22:16.


Runtime Options:

      2031  Random seed #1
         0  Random seed #2
         F  Output binary HH turbulence parameters?
         F  Output formatted turbulence parameters?
         F  Output AeroDyn HH files?
         T  Output AeroDyn FF files?
         F  Output BLADED FF files?
         F  Output tower data?
         F  Output HAWC FF files?
         F  Output formatted FF files?
         T  Output coherent turbulence time step file?
 0 -  NONE  IEC turbulence models scaled to exact specified standard deviation


Turbine/Model Specifications:

        31  Vertical grid-point matrix dimension
        41  Horizontal grid-point matrix dimension
     0.100  Time step [seconds]
   200.000  Analysis time [seconds]
   200.000  Usable output time [seconds]
   151.000  Hub height [m]
   300.000  Grid height [m]
   600.000  Grid width [m]
     0.000  Vertical flow angle [degrees]
     0.000  Horizontal flow angle [degrees]


Meteorological Boundary Conditions:

    IECVKM  IEC von Karman spectral model
         1  IEC standard: IEC 61400-1 Ed. 2: 1999
    10.000  Percent turbulence intensity, IEC 61400-1 Ed. 2: 1999
       NTM  IEC Normal Turbulence Model
       N/A  IEC Extreme Turbulence Model (ETM) "c" parameter [m/s]
       PL   Wind profile type
   150.000  Reference height [m]
    10.000  Reference wind speed [m/s]
       N/A  Jet height [m]
     0.100  Power law exponent
     0.030  Surface roughness length [m]


Non-IEC Meteorological Boundary Conditions:

       N/A  Site latitude [degrees]
       N/A  Gradient Richardson number
       N/A  Friction or shear velocity [m/s]
       N/A  Mixing layer depth [m]
       N/A  Mean hub u'w' Reynolds stress
       N/A  Mean hub u'v' Reynolds stress
       N/A  Mean hub v'w' Reynolds stress


Spatial Coherence Models:

       IEC  u-component coherence model
       IEC  v-component coherence model
       IEC  w-component coherence model
(   12.000, 0.659E-03)  u-component coherence parameters
(   12.000, 0.659E-03)  v-component coherence parameters
(   12.000, 0.659E-03)  w-component coherence parameters
       N/A  Coherence exponent


You have requested that the following file(s) be generated:

   ./TurbulentWind_20WT/FOWTs/Wind\InflowWind_High_WT7.bts (AeroDyn/TurbSim full-field wind file)


Turbulence Simulation Scaling Parameter Summary:

   Turbulence model used                            =  IEC von Karman
   Turbulence characteristic                        =  User-specified
   IEC standard                                     =  IEC 61400-1 Ed. 2: 1999
   Mean wind speed at hub height                    =   10.007 m/s
   Characteristic value of standard deviation       =    1.001 m/s
   Turbulence scale                                 =   21.000 m
   Isotropic integral scale                         =   73.500 m
   Characteristic value of hub turbulence intensity =   10.000%
   Gradient Richardson number                       =    0.000

   Wind profile type                                =  Power law
   Power law exponent                               =    0.100
   Mean shear across rotor disk                     =    0.016 (m/s)/m
   Assumed rotor diameter                           =  300.000 m
   Surface roughness length                         =    0.030 m

   Nyquist frequency of turbulent wind field        =    5.000 Hz

   Number of time steps in the FFT                  =     2600
   Number of time steps output                      =     2600
   Number of points simulated                       =     1271


Mean Flow Angles:

   Vertical   =   0.0 degrees
   Horizontal =   0.0 degrees

Mean Wind Speed Profile:

   Height    Wind Speed   Horizontal Angle  Vertical Angle  U-comp (X)   V-comp (Y)   W-comp (Z)
     (m)        (m/s)         (degrees)       (degrees)       (m/s)        (m/s)        (m/s)   
   ------    ----------   ----------------  --------------  ----------   ----------   ----------
    301.0       10.72            0.00            0.00         10.72         0.00         0.00
    291.0       10.69            0.00            0.00         10.69         0.00         0.00
    281.0       10.65            0.00            0.00         10.65         0.00         0.00
    271.0       10.61            0.00            0.00         10.61         0.00         0.00
    261.0       10.57            0.00            0.00         10.57         0.00         0.00
    251.0       10.53            0.00            0.00         10.53         0.00         0.00
    241.0       10.49            0.00            0.00         10.49         0.00         0.00
    231.0       10.44            0.00            0.00         10.44         0.00         0.00
    221.0       10.40            0.00            0.00         10.40         0.00         0.00
    211.0       10.35            0.00            0.00         10.35         0.00         0.00
    201.0       10.30            0.00            0.00         10.30         0.00         0.00
    191.0       10.24            0.00            0.00         10.24         0.00         0.00
    181.0       10.19            0.00            0.00         10.19         0.00         0.00
    171.0       10.13            0.00            0.00         10.13         0.00         0.00
    161.0       10.07            0.00            0.00         10.07         0.00         0.00
    151.0       10.01            0.00            0.00         10.01         0.00         0.00
    141.0        9.94            0.00            0.00          9.94         0.00         0.00
    131.0        9.87            0.00            0.00          9.87         0.00         0.00
    121.0        9.79            0.00            0.00          9.79         0.00         0.00
    111.0        9.70            0.00            0.00          9.70         0.00         0.00
    101.0        9.61            0.00            0.00          9.61         0.00         0.00
     91.0        9.51            0.00            0.00          9.51         0.00         0.00
     81.0        9.40            0.00            0.00          9.40         0.00         0.00
     71.0        9.28            0.00            0.00          9.28         0.00         0.00
     61.0        9.14            0.00            0.00          9.14         0.00         0.00
     51.0        8.98            0.00            0.00          8.98         0.00         0.00
     41.0        8.78            0.00            0.00          8.78         0.00         0.00
     31.0        8.54            0.00            0.00          8.54         0.00         0.00
     21.0        8.22            0.00            0.00          8.22         0.00         0.00
     11.0        7.70            0.00            0.00          7.70         0.00         0.00
      1.0        6.06            0.00            0.00          6.06         0.00         0.00


Harvested Random Seeds after Generation of the Random Numbers:

    341365694 Harvested seed # 1
   1971657505 Harvested seed # 2


Hub-Height Simulated Turbulence Statistical Summary:

   Type of Wind        Min (m/s)   Mean (m/s)    Max (m/s)  Sigma (m/s)       TI (%)
   ----------------    ---------   ----------    ---------  -----------       ------
   Longitudinal (u)         7.66        10.01        13.28        0.905        9.040
   Lateral (v)             -2.33         0.00         2.70        0.858        8.573
   Vertical (w)            -2.55        -0.00         3.58        1.032       10.317
   U component              7.66        10.01        13.28        0.905        9.040
   V component             -2.33         0.00         2.70        0.858        8.573
   W component             -2.55        -0.00         3.58        1.032       10.317
   Horizontal (U&V)         7.66        10.04        13.28        0.904        8.998
   Total                    7.69        10.10        13.35        0.901        8.919

                       Min Reynolds     Mean Reynolds    Max Reynolds    Correlation
   Product             Stress (m/s)^2   Stress (m/s)^2   Stress (m/s)^2  Coefficient
   ----------------    --------------   --------------   --------------  -----------
   u'w'                     -4.424            -0.029             3.156        -0.031
   u'v'                     -4.441             0.067             3.149         0.086
   v'w'                     -4.366            -0.169             4.177        -0.191


   Friction Velocity (Ustar)  =      0.170 m/s
   Maximum Instantaneous TKE  =      6.542 (m/s)^2
   Maximum Instantaneous CTKE =      2.934 (m/s)^2


Grid Point Variance Summary:

   Y-coord -300.00 -285.00 -270.00 -255.00 -240.00 -225.00 -210.00 -195.00 -180.00 -165.00 -150.00 -135.00 -120.00 -105.00  -90.00  -75.00  -60.00  -45.00  -30.00  -15.00    0.00   15.00   30.00   45.00   60.00   75.00   90.00  105.00  120.00  135.00  150.00  165.00  180.00  195.00  210.00  225.00  240.00  255.00  270.00  285.00  300.00

   Height   Standard deviation at grid points for the u component:
   301.00    1.155   0.996   1.042   1.167   1.153   1.115   1.036   1.061   0.895   0.892   0.899   0.924   0.908   1.031   1.087   1.051   1.014   0.940   0.883   0.968   0.872   0.918   0.878   0.796   0.782   0.816   0.862   0.871   1.025   0.936   0.854   0.824   0.770   0.941   0.998   1.036   1.133   1.100   1.234   1.199   1.002
   291.00    1.118   1.123   1.128   1.159   1.208   1.054   0.972   0.919   0.891   0.814   0.930   0.921   1.011   0.843   0.929   0.919   0.917   0.925   0.891   0.905   0.943   0.960   0.850   0.796   0.758   0.891   0.946   0.925   0.964   0.932   0.897   0.841   0.874   0.817   0.953   0.993   1.093   1.108   1.190   1.095   1.049
   281.00    1.055   1.176   1.117   1.159   1.236   1.030   0.974   0.923   0.811   0.759   0.849   0.857   0.867   1.001   0.887   0.901   0.996   0.961   0.940   0.927   0.940   0.993   1.015   0.944   0.827   0.824   0.960   1.069   0.951   0.939   0.932   0.848   0.924   0.885   0.913   0.976   1.143   1.229   1.199   1.025   1.026
   271.00    1.140   1.164   1.125   1.207   1.243   1.103   1.055   0.851   0.868   0.782   0.835   0.837   0.885   0.966   0.857   0.929   0.980   0.871   0.843   1.038   0.845   0.969   0.942   0.939   0.943   0.889   0.899   1.022   0.998   0.950   0.936   0.921   0.865   0.907   0.922   1.075   1.165   1.148   1.071   0.983   1.046
   261.00    1.151   1.256   1.137   1.201   1.207   1.153   0.910   0.891   0.904   0.891   0.836   0.911   0.886   0.913   0.922   0.918   0.921   0.919   0.971   0.910   0.872   0.969   0.882   0.883   0.967   1.052   0.945   0.961   0.996   0.999   0.878   1.031   0.973   1.003   1.106   1.060   1.127   1.090   1.042   0.947   1.024
   251.00    1.205   1.184   1.007   1.205   1.173   0.985   0.933   0.869   0.850   0.838   0.878   0.923   1.003   0.879   0.926   0.876   0.806   0.911   0.957   0.982   1.020   1.005   0.976   0.867   0.928   1.008   1.027   0.863   0.905   0.941   0.908   0.922   0.991   0.915   0.977   1.129   1.088   0.941   0.953   0.951   1.036
   241.00    1.129   1.073   1.064   1.167   0.990   0.887   0.908   0.909   0.900   0.776   0.846   0.940   0.906   0.893   0.818   0.787   0.875   0.876   0.942   0.978   1.026   1.023   0.956   0.905   0.886   0.894   0.903   0.978   1.025   1.022   1.050   1.027   1.043   0.906   0.985   1.104   1.007   0.966   1.039   1.032   0.967
   231.00    1.032   0.976   1.048   1.089   1.085   0.873   0.859   0.857   0.801   0.706   0.829   0.977   0.815   0.855   0.858   0.833   0.846   0.961   0.881   0.909   1.038   1.001   0.926   0.800   0.777   0.874   0.921   0.982   1.068   0.936   0.961   0.982   1.031   0.977   0.960   1.043   0.986   0.980   0.918   1.073   1.073
   221.00    0.954   0.950   0.943   1.014   1.033   1.038   0.904   0.859   0.858   0.794   0.865   0.916   0.900   0.907   0.857   0.844   0.749   0.885   1.010   0.964   0.920   0.920   0.876   0.828   0.839   0.829   0.922   0.938   0.984   1.095   0.991   0.992   1.171   1.050   0.952   0.941   0.932   0.964   1.043   1.106   1.142
   211.00    1.065   0.876   0.916   0.985   1.036   1.059   0.867   0.805   0.881   0.882   0.976   1.008   0.948   0.909   0.903   0.883   0.828   0.934   1.081   1.019   0.928   0.874   0.914   0.925   0.889   0.940   1.071   0.984   0.963   1.002   1.006   1.070   1.103   1.015   0.910   0.853   0.917   0.963   1.052   1.082   1.003
   201.00    0.960   0.931   0.886   0.885   0.995   0.999   0.933   1.063   1.055   0.988   1.033   1.001   0.962   0.918   0.891   0.944   0.869   0.908   0.936   0.990   0.854   0.875   0.932   0.910   0.941   1.011   1.079   0.985   0.991   0.967   1.076   1.131   1.039   1.094   0.899   0.797   0.857   1.068   1.047   1.084   0.987
   191.00    0.926   0.860   0.966   0.978   0.961   1.087   1.016   1.146   1.059   1.078   0.971   1.052   1.053   0.932   0.859   0.881   0.921   0.955   0.951   0.885   0.834   0.942   1.053   0.945   1.058   0.975   1.015   0.911   0.891   1.018   1.103   1.056   1.020   0.997   0.927   0.891   0.863   0.959   1.134   1.120   1.102
   181.00    0.869   0.890   0.898   0.971   0.999   1.036   0.979   1.098   1.103   1.060   0.989   1.107   1.064   1.063   1.094   1.025   1.030   0.924   0.969   0.933   0.824   0.924   0.903   0.905   1.052   1.016   1.055   0.902   0.948   0.987   0.973   0.922   0.934   0.995   0.871   0.925   1.024   0.980   1.050   1.034   1.138
   171.00    0.804   0.778   0.824   0.931   1.055   0.993   1.109   1.111   1.078   0.999   1.032   1.123   1.121   1.024   1.086   1.010   0.960   0.968   0.992   0.886   0.807   0.839   0.831   0.950   1.024   0.971   1.022   0.849   0.914   0.898   0.953   0.933   0.979   1.050   0.905   0.904   0.993   0.956   1.024   1.015   1.233
   161.00    0.887   0.907   0.866   0.903   1.013   1.085   0.993   1.085   1.006   0.892   1.075   1.066   1.038   1.005   1.003   1.009   0.978   0.965   0.982   0.989   0.859   0.784   0.983   1.012   0.951   0.893   0.967   0.964   0.910   0.946   0.898   0.866   0.899   0.986   0.861   0.924   0.918   0.933   0.934   1.064   1.186
   151.00    0.904   0.922   0.863   0.869   1.031   0.947   0.984   0.950   0.843   0.953   1.114   1.044   0.909   1.046   1.169   1.097   1.079   1.111   1.085   0.959   0.905   0.892   1.009   0.961   0.982   0.930   0.868   0.817   0.849   0.886   0.913   0.897   0.955   0.853   0.900   0.979   0.952   0.958   1.074   1.156   1.204
   141.00    0.843   0.909   0.905   0.895   0.940   0.959   0.950   0.914   0.980   0.993   1.064   0.924   0.785   0.967   1.133   1.082   1.129   1.168   1.189   0.919   0.865   0.889   0.951   0.943   0.952   0.919   0.858   0.784   0.803   0.866   0.902   0.898   0.876   0.884   0.909   0.998   1.043   0.917   1.037   1.173   1.076
   131.00    0.865   0.879   0.854   0.822   1.022   0.928   0.963   0.922   1.053   1.029   0.923   0.854   0.796   0.937   1.236   1.107   1.099   1.227   1.141   0.955   0.851   0.923   0.970   0.810   0.881   0.886   0.817   0.851   0.886   0.845   0.921   0.879   0.932   0.797   0.870   0.903   0.890   0.927   0.986   1.127   1.078
   121.00    0.852   0.880   0.854   0.892   0.981   1.029   0.911   0.910   0.976   0.973   0.930   0.980   0.832   1.001   1.116   1.123   1.042   1.103   0.967   0.837   0.912   0.925   0.938   0.812   0.871   0.731   0.865   0.927   0.900   0.957   0.906   0.887   0.793   0.852   0.831   0.872   0.840   0.831   0.861   0.960   1.057
   111.00    0.829   0.907   0.854   0.938   0.942   0.982   0.857   0.824   0.867   0.988   0.955   1.023   0.985   1.027   1.088   1.123   0.983   0.937   0.898   0.816   0.991   0.940   0.834   0.873   0.806   0.824   0.813   0.952   0.970   0.918   0.879   0.879   0.773   0.805   0.832   0.907   0.854   0.780   0.903   0.960   0.931
   101.00    0.807   0.979   0.956   0.865   0.912   0.902   0.902   0.914   0.922   1.014   1.042   0.988   1.017   1.049   1.031   1.059   0.846   0.941   0.747   0.821   0.906   0.953   0.868   0.908   0.975   1.040   0.772   0.905   0.841   0.967   0.885   0.807   0.755   0.823   0.963   0.890   0.825   0.909   0.991   1.046   0.995
    91.00    0.838   0.919   0.925   0.885   0.890   0.837   0.937   0.943   0.922   0.990   1.046   1.027   1.005   1.029   0.993   0.953   0.886   0.930   0.820   0.743   0.881   0.967   1.067   0.973   0.999   1.049   0.955   0.968   1.006   0.826   0.753   0.735   0.779   0.892   0.851   0.874   0.833   0.942   0.928   0.787   0.910
    81.00    0.991   0.946   0.929   0.891   0.973   0.983   0.929   0.891   0.944   1.062   1.043   1.018   1.061   0.984   0.862   0.917   0.943   0.965   0.906   0.768   0.876   0.932   0.970   1.062   1.037   1.103   1.027   0.926   0.964   0.923   0.853   0.769   0.755   0.829   0.850   0.827   0.845   0.948   0.911   0.839   0.879
    71.00    0.837   0.942   0.990   0.935   0.957   0.980   0.891   0.861   0.942   0.951   0.980   1.032   1.091   1.032   0.873   0.842   0.765   0.803   0.932   0.839   0.878   0.910   0.853   0.994   1.067   1.148   1.060   1.030   0.970   0.980   0.841   0.818   0.829   0.835   0.880   0.755   0.882   0.888   0.841   0.971   0.983
    61.00    0.855   0.954   0.940   0.840   0.997   0.986   0.877   0.818   0.886   0.945   0.900   0.924   1.066   1.000   0.866   0.833   0.794   0.802   0.934   0.831   0.916   0.868   0.886   0.956   1.092   1.295   1.200   1.039   1.112   0.942   0.770   0.928   0.872   0.913   0.780   0.760   0.819   0.778   0.817   0.980   1.031
    51.00    0.874   0.908   0.932   0.809   0.974   0.925   0.900   0.767   0.840   0.899   0.930   0.989   1.044   0.832   0.861   0.884   0.727   0.778   0.837   0.878   0.927   0.867   0.918   1.128   1.208   1.247   1.261   1.080   1.080   0.896   0.832   0.914   0.926   0.903   0.887   0.810   0.812   0.758   0.893   1.007   0.871
    41.00    0.835   0.904   0.942   0.838   0.899   0.884   0.760   0.890   0.928   0.843   0.979   0.909   1.003   0.916   0.789   0.879   0.840   0.801   0.969   0.914   0.890   0.953   0.973   1.015   1.103   1.234   1.174   1.107   1.021   1.029   0.932   0.983   0.975   0.916   0.907   0.779   0.828   0.807   0.847   0.936   0.993
    31.00    0.769   0.860   0.886   0.869   0.892   0.872   0.696   0.884   0.937   0.847   0.915   0.867   0.952   0.885   0.838   0.890   0.879   0.871   0.965   0.938   0.914   0.995   1.214   1.144   1.186   1.291   1.245   1.138   1.126   1.166   0.873   0.988   0.926   0.938   0.935   0.837   0.756   0.876   0.870   0.994   0.975
    21.00    0.819   0.863   0.878   0.822   0.907   0.968   0.961   0.896   0.939   0.955   0.869   0.800   0.909   0.788   0.825   0.873   0.986   0.856   0.872   0.968   0.957   0.982   1.088   1.032   1.166   1.323   1.191   1.195   1.129   1.043   0.900   1.048   0.943   0.958   0.876   0.931   0.852   0.857   0.972   0.952   0.917
    11.00    0.831   0.877   0.846   0.826   0.856   0.908   0.945   0.872   0.977   1.001   0.950   0.811   0.856   0.849   0.786   0.782   0.890   0.755   0.858   0.952   0.944   0.940   1.089   1.033   1.118   1.222   1.183   1.142   1.046   0.955   0.927   1.004   0.999   1.020   0.831   0.939   0.876   0.927   0.872   0.910   0.899
     1.00    0.963   0.917   0.863   0.817   0.831   0.847   0.912   1.042   0.924   1.027   0.913   0.811   0.814   0.826   0.848   0.745   0.839   0.895   0.909   0.931   0.929   0.904   1.005   1.074   1.113   1.185   1.197   1.242   1.047   1.027   1.030   1.036   0.898   0.995   0.915   0.908   0.916   0.942   0.919   0.845   0.962

   Height   Standard deviation at grid points for the v component:
   301.00    0.968   1.001   1.044   1.039   0.979   0.924   0.970   0.957   1.049   1.109   1.069   0.904   0.941   1.028   1.041   0.916   0.851   0.869   0.927   0.984   0.912   0.946   0.960   1.028   0.917   0.795   0.910   0.892   0.951   0.885   0.945   1.018   0.959   0.873   0.923   0.851   1.055   1.072   1.012   1.073   0.932
   291.00    0.990   0.953   1.007   0.920   0.920   0.995   0.929   0.941   1.025   1.069   1.016   0.944   0.953   1.045   0.951   0.867   0.829   0.912   0.949   0.956   0.972   0.835   0.971   1.044   1.030   0.949   0.923   0.890   0.877   0.920   0.950   0.943   1.013   0.900   0.954   1.006   1.032   1.081   1.051   1.009   0.932
   281.00    0.918   0.954   0.945   0.994   0.911   0.909   0.871   0.927   0.959   1.027   1.060   0.915   1.001   0.946   0.992   0.874   0.846   0.900   0.864   0.850   0.888   0.870   0.929   0.929   0.883   0.921   0.935   0.981   0.912   0.919   0.865   0.962   0.949   0.942   1.004   1.015   1.005   0.994   0.987   0.913   0.893
   271.00    1.056   0.989   0.866   0.858   0.944   0.997   0.946   0.984   0.965   1.112   1.047   0.962   0.887   0.967   0.943   0.988   0.887   0.916   0.879   0.862   0.771   0.895   0.832   0.868   0.930   0.886   0.978   0.925   0.997   0.960   0.817   0.937   0.928   0.961   1.013   1.006   1.029   0.917   0.818   0.878   0.824
   261.00    1.015   1.036   0.814   0.887   0.992   1.037   0.969   0.930   0.930   1.051   1.028   0.987   0.836   0.910   0.969   0.915   0.862   0.918   0.872   0.917   0.875   0.896   0.902   0.864   1.004   0.995   1.093   0.969   0.948   0.990   0.858   0.964   0.948   0.994   1.008   0.908   0.970   0.914   0.840   0.875   0.833
   251.00    0.950   0.956   0.979   0.952   1.017   1.004   0.949   0.897   0.880   0.993   0.992   0.906   0.980   0.929   1.037   1.045   0.825   0.883   0.916   1.000   0.893   0.934   0.918   0.933   1.042   1.039   1.074   0.969   1.050   0.909   0.956   0.956   0.968   1.043   0.959   0.912   0.914   0.963   0.948   0.804   0.889
   241.00    1.046   1.013   1.025   1.006   1.091   0.920   0.895   0.863   0.776   0.933   0.945   0.885   0.931   0.931   0.975   1.029   0.875   0.948   0.962   0.947   0.949   0.894   0.915   0.902   1.027   1.047   1.046   1.118   1.014   0.938   0.920   0.861   0.961   1.041   0.985   0.892   0.873   0.876   0.957   0.840   0.920
   231.00    0.989   0.900   0.957   1.050   0.996   1.021   1.010   0.915   0.894   1.023   0.937   0.807   0.910   0.918   0.953   1.011   0.883   1.040   1.083   0.898   0.956   0.912   0.952   1.038   0.851   0.975   0.928   1.008   0.971   0.906   0.907   0.988   1.054   0.931   0.909   0.863   0.877   0.955   1.013   0.900   0.967
   221.00    0.975   0.848   0.960   1.063   0.953   1.072   0.990   0.887   1.010   0.960   0.913   0.818   0.886   0.864   0.879   0.897   0.889   0.971   1.108   0.912   0.984   0.963   0.943   0.912   0.917   0.935   0.912   1.007   1.003   0.971   0.951   0.926   1.019   1.030   0.908   0.872   0.901   0.991   1.022   0.879   0.902
   211.00    0.986   0.991   1.041   1.057   0.986   1.083   0.965   0.918   0.989   0.941   0.954   0.870   0.865   0.843   0.855   0.787   0.920   0.975   0.986   1.086   0.930   0.906   0.949   0.949   0.987   0.947   0.978   0.972   0.972   0.909   0.969   1.039   0.982   0.924   1.009   0.995   0.854   0.979   0.999   0.850   0.883
   201.00    0.927   0.965   1.021   0.938   0.959   0.973   0.859   0.890   0.942   0.873   0.873   0.820   0.927   0.869   0.843   0.907   0.917   0.944   0.942   1.010   1.042   0.883   0.909   0.950   0.972   0.871   0.964   0.996   1.039   0.863   1.023   0.959   0.939   0.974   0.959   0.942   0.962   0.921   0.884   0.897   0.944
   191.00    0.977   0.985   0.980   1.004   0.973   0.977   0.868   0.926   0.959   0.914   0.865   0.884   0.881   0.887   0.843   0.872   0.901   0.977   1.066   1.075   0.911   1.010   0.909   0.896   1.025   1.012   0.986   1.011   0.993   0.985   0.960   0.912   0.964   0.935   0.958   0.999   0.985   0.929   0.925   1.044   0.964
   181.00    0.995   1.052   1.053   1.031   0.996   0.962   1.009   0.921   0.916   0.997   0.957   0.963   0.910   0.870   0.865   0.896   0.903   0.941   1.078   1.084   0.909   0.973   0.939   0.936   1.009   1.061   1.047   1.136   1.028   1.036   0.984   0.940   0.952   0.922   0.964   0.896   0.996   0.946   0.928   0.954   0.940
   171.00    1.075   1.067   1.097   0.909   0.962   0.965   0.976   0.958   0.849   0.897   0.902   0.909   0.833   0.801   0.893   0.851   0.830   0.878   0.887   1.065   0.922   1.003   1.029   1.012   1.008   1.021   0.936   1.112   1.020   1.029   0.959   0.854   0.978   1.055   1.014   1.019   1.033   0.979   0.895   0.940   0.861
   161.00    1.009   1.051   1.110   0.985   0.807   0.917   0.953   0.971   0.856   0.948   0.889   0.860   0.925   0.881   0.865   0.878   0.927   0.871   0.968   1.055   0.958   0.912   0.917   0.964   1.085   1.084   0.996   1.079   1.043   1.054   0.995   0.959   1.044   1.080   1.048   1.054   0.989   0.912   0.976   0.920   0.913
   151.00    1.008   0.985   1.026   0.946   0.837   0.911   0.962   0.914   0.921   0.941   0.929   0.955   1.032   0.843   0.862   0.849   0.897   0.911   0.868   1.011   0.858   0.901   0.886   0.907   0.961   1.020   0.871   1.105   1.055   0.940   0.994   0.981   1.068   1.099   1.077   1.004   0.893   0.953   0.970   0.830   0.859
   141.00    1.034   0.955   0.989   0.899   0.857   0.929   1.005   0.911   0.939   0.974   0.939   0.985   0.973   0.869   0.915   0.895   0.858   0.900   0.919   0.885   0.872   0.865   0.852   0.929   0.948   0.951   0.980   1.153   1.017   0.972   0.970   0.963   1.085   1.106   1.053   0.937   0.836   0.973   0.931   0.864   0.921
   131.00    0.979   0.987   0.932   0.848   0.903   0.954   0.907   0.865   0.869   0.927   0.937   1.002   1.023   0.955   0.927   0.983   0.843   0.962   0.867   0.862   0.932   0.871   0.934   0.904   0.852   0.848   0.957   1.054   1.117   1.033   0.950   0.964   1.022   1.058   1.034   0.932   0.888   0.942   0.907   0.892   0.892
   121.00    1.015   1.015   0.979   0.829   0.896   0.978   0.917   0.798   0.830   0.928   0.920   0.984   1.079   0.942   0.972   0.961   0.991   0.893   0.823   0.800   0.944   0.909   0.926   0.922   0.922   0.930   0.945   0.984   1.100   0.950   0.983   0.965   1.002   1.009   0.911   0.878   0.968   0.956   0.858   0.902   0.867
   111.00    1.101   1.023   0.990   0.921   0.927   0.962   0.900   0.928   0.871   0.859   0.864   0.999   1.043   0.927   0.919   0.869   0.978   0.867   0.865   0.805   0.861   0.956   0.937   0.938   0.912   0.926   0.901   1.067   1.015   0.917   0.981   1.028   0.943   0.966   0.934   0.937   0.893   0.904   0.942   0.911   0.859
   101.00    0.985   0.961   0.902   0.971   1.025   0.974   0.918   0.974   0.880   0.901   0.870   0.944   1.044   1.010   0.950   0.885   0.958   0.917   1.011   0.924   0.936   1.003   0.918   0.943   0.872   0.951   0.978   1.095   0.988   0.945   0.990   0.927   0.938   0.927   0.947   0.905   0.870   0.872   0.953   0.932   0.931
    91.00    0.938   0.944   0.891   1.006   0.905   0.922   0.906   0.991   0.945   0.813   0.938   0.942   1.057   1.078   1.087   0.902   0.866   0.945   1.046   1.124   0.984   0.998   0.922   0.884   0.984   1.009   0.981   0.984   0.971   0.984   0.965   0.930   0.898   0.891   0.969   0.916   0.907   0.895   0.869   0.963   0.922
    81.00    1.004   0.842   0.994   0.973   0.997   1.078   0.938   1.020   0.990   0.841   0.900   0.978   0.971   1.027   1.035   1.039   0.954   0.924   1.011   0.980   1.007   0.955   0.885   0.920   0.972   1.025   1.043   1.008   0.972   0.898   0.973   0.890   0.989   0.882   0.897   0.904   0.887   0.922   1.029   0.906   0.904
    71.00    1.037   0.957   0.906   0.827   0.915   1.002   0.999   1.034   1.027   0.998   0.996   1.052   0.968   0.995   0.955   1.051   0.888   0.938   0.911   0.885   0.993   0.955   0.815   0.870   1.020   1.117   0.996   1.019   1.009   0.946   0.925   0.910   0.897   0.948   0.904   0.838   0.947   0.856   0.989   0.911   0.890
    61.00    0.960   0.931   0.852   0.857   0.926   0.956   0.970   1.075   1.013   0.967   1.055   1.175   1.009   0.997   0.960   1.077   0.964   0.970   0.874   0.944   0.949   0.953   0.904   0.838   0.939   1.083   1.034   0.996   1.001   1.032   0.937   0.829   0.954   0.916   0.909   0.971   0.941   0.947   0.948   0.866   0.811
    51.00    0.924   0.990   0.925   0.892   0.898   0.981   0.883   1.083   1.113   1.001   0.993   1.037   0.961   0.932   1.045   0.965   1.017   0.956   0.941   0.879   1.056   0.976   0.937   0.949   0.928   1.056   1.103   0.988   1.012   0.932   0.997   0.961   0.909   0.886   0.948   0.892   0.935   0.921   0.902   0.976   0.891
    41.00    0.972   0.941   0.946   0.928   0.922   0.915   0.831   0.961   1.112   1.106   1.034   1.099   1.059   1.015   1.030   0.918   0.989   1.011   1.095   0.986   0.996   1.003   1.069   1.048   1.009   1.065   1.055   0.974   1.021   0.902   0.975   1.010   0.924   0.918   0.950   0.932   0.937   1.003   1.022   0.960   0.976
    31.00    0.971   0.954   0.925   0.961   0.918   0.832   0.886   0.903   0.991   1.080   1.121   1.146   1.125   0.995   0.965   0.979   1.079   1.059   1.114   1.010   0.895   1.001   1.006   1.157   1.077   1.037   0.984   0.953   0.966   0.980   0.946   0.980   1.024   1.001   1.019   0.944   0.929   0.936   1.014   0.898   0.902
    21.00    0.867   0.983   0.988   1.039   0.921   0.862   0.890   0.870   0.890   1.021   1.109   1.077   1.057   1.017   0.950   0.988   1.026   1.009   1.073   0.997   0.869   0.993   1.002   1.027   1.032   1.000   0.950   1.006   0.985   0.970   0.933   0.936   0.994   1.058   1.046   0.935   0.925   0.932   0.929   0.905   0.908
    11.00    0.958   0.983   1.097   1.037   1.012   0.908   0.891   0.880   0.951   1.025   1.002   1.060   1.042   1.100   0.917   1.025   1.048   0.947   0.956   1.033   0.937   0.888   0.885   0.892   0.901   0.859   0.997   1.048   0.992   1.042   0.934   1.043   1.107   0.983   1.079   1.046   0.936   0.942   0.892   0.921   0.937
     1.00    0.974   0.932   1.007   0.976   0.989   0.945   0.935   0.877   0.976   1.029   1.021   1.014   1.048   1.074   1.001   0.955   1.024   1.007   0.912   0.931   0.946   0.968   0.902   0.863   0.909   0.902   0.972   1.027   0.985   1.038   0.976   1.058   1.073   1.000   0.994   0.961   0.913   0.953   0.948   0.837   0.885

   Height   Standard deviation at grid points for the w component:
   301.00    0.936   0.933   0.922   0.991   0.981   1.026   0.882   0.821   0.895   0.910   0.963   0.926   0.943   0.935   1.005   0.929   1.059   0.939   0.991   0.996   0.990   1.004   0.944   0.815   0.932   0.917   0.857   0.970   0.962   0.962   0.917   0.784   0.964   0.927   0.951   0.996   0.909   0.929   0.950   0.995   0.938
   291.00    0.905   0.820   0.845   0.950   0.917   0.869   0.896   0.922   0.883   0.831   0.892   0.987   0.971   0.885   0.987   0.983   1.170   0.887   0.976   1.037   0.980   1.060   0.959   0.878   0.839   1.058   1.040   1.018   1.056   1.022   1.020   0.921   0.847   0.890   0.984   1.041   0.952   0.974   0.921   1.024   0.901
   281.00    0.911   0.802   1.004   0.922   0.969   0.941   0.927   0.918   0.840   0.847   0.848   0.976   1.046   0.910   0.873   1.004   1.085   1.068   1.069   1.092   1.073   1.114   1.024   0.925   1.003   0.992   1.003   1.040   0.976   0.978   1.014   0.964   0.959   0.894   0.983   1.018   1.048   0.972   0.903   0.876   0.911
   271.00    0.913   0.903   0.860   0.981   1.026   0.939   0.967   0.909   0.849   0.820   0.893   0.858   1.048   0.989   0.837   0.986   0.988   1.036   1.040   1.142   1.068   1.009   1.040   1.069   0.991   1.030   1.022   0.911   0.964   1.010   1.025   0.878   0.935   0.905   0.963   0.952   0.967   0.932   0.939   0.922   0.877
   261.00    0.909   0.841   0.925   0.886   1.013   0.911   1.005   0.831   0.899   0.877   0.850   0.878   0.908   1.010   0.941   0.970   1.026   0.959   0.971   1.118   1.064   1.078   1.095   1.161   0.993   0.903   0.921   0.997   0.891   0.981   0.891   0.800   0.762   0.908   1.007   1.010   0.939   0.983   0.977   1.005   0.844
   251.00    0.986   0.920   0.911   1.073   1.047   1.020   1.038   0.882   0.953   0.913   0.871   0.958   0.913   1.004   1.104   1.100   1.020   0.963   0.968   1.010   1.143   1.013   1.027   1.103   1.063   0.991   0.926   1.002   0.952   0.917   0.927   0.938   0.802   0.948   0.944   1.079   1.004   0.968   0.922   1.013   0.917
   241.00    1.076   1.017   1.004   1.019   0.955   0.993   0.968   0.995   0.928   0.916   0.990   0.879   1.003   1.026   1.022   1.023   0.999   0.959   0.867   0.963   1.000   1.105   1.055   1.031   0.969   1.108   0.977   0.983   0.916   0.975   0.981   0.961   0.789   0.899   1.012   1.083   1.015   0.978   0.931   0.931   0.849
   231.00    0.968   1.137   1.006   0.959   1.020   0.911   0.915   0.847   0.858   0.833   1.037   0.888   1.006   1.006   0.934   1.003   0.992   0.969   0.826   0.940   1.104   1.136   1.045   0.961   1.041   1.045   0.936   1.023   1.016   0.971   0.903   0.916   1.012   0.916   1.050   1.040   1.118   0.970   0.911   0.942   0.794
   221.00    1.041   1.187   1.206   1.009   1.038   0.947   0.933   0.890   0.819   0.829   0.949   0.975   1.025   1.005   0.947   0.923   1.021   0.966   0.938   0.934   1.066   1.137   1.153   1.030   1.041   1.093   1.030   1.042   1.031   0.864   0.936   0.949   0.998   1.120   1.101   1.063   1.082   1.123   1.023   0.937   0.882
   211.00    1.043   1.124   1.157   1.026   0.942   0.868   0.895   0.924   0.892   0.921   0.976   0.953   0.877   0.938   0.912   0.859   1.018   0.971   1.042   1.034   0.969   1.114   1.121   0.936   1.031   1.012   1.008   1.028   0.936   0.851   0.827   0.910   0.997   1.104   1.204   1.135   1.030   1.025   0.948   0.945   0.980
   201.00    1.090   1.215   1.115   1.028   0.945   0.906   0.935   0.883   0.859   0.911   0.896   0.931   0.941   0.922   0.922   0.837   0.938   1.077   1.082   1.097   0.915   1.033   0.958   0.994   0.898   0.913   0.986   1.002   0.948   0.871   0.875   0.868   0.983   1.085   1.117   1.108   1.035   1.026   0.984   1.037   1.008
   191.00    1.102   1.102   1.041   0.968   0.863   0.844   0.845   0.892   0.905   1.005   0.907   0.922   0.950   0.937   0.885   0.909   0.886   0.979   1.092   1.110   0.858   0.841   0.987   0.932   0.884   0.934   0.960   1.083   0.912   0.955   0.981   0.847   1.041   1.074   1.166   1.069   0.975   1.020   1.016   1.028   1.051
   181.00    1.079   1.175   0.862   0.894   0.834   0.802   0.857   0.945   0.872   0.917   0.946   0.991   0.899   0.929   0.924   0.892   0.992   1.067   1.095   1.131   0.962   0.930   0.970   0.926   0.848   0.940   0.910   0.944   0.992   0.935   1.015   0.943   0.975   1.127   1.140   1.041   0.867   1.050   1.000   1.034   1.081
   171.00    1.111   1.075   0.909   0.942   0.919   0.855   0.790   0.903   1.010   0.960   0.932   0.963   0.990   1.012   1.088   0.883   0.909   0.989   1.042   0.999   1.031   0.960   0.893   0.879   0.913   0.982   0.912   0.947   0.936   0.953   0.924   1.002   1.024   1.099   1.151   0.978   0.860   0.947   1.041   1.017   1.030
   161.00    0.999   1.097   0.903   0.914   0.953   0.921   0.931   0.893   0.947   0.914   0.995   0.914   1.039   1.188   1.024   0.882   0.977   1.029   1.078   1.042   1.090   1.017   0.925   0.912   0.998   0.987   0.875   0.851   0.906   0.950   0.909   1.052   0.962   1.142   1.084   1.022   0.957   1.006   1.064   1.050   1.027
   151.00    1.039   1.041   0.905   0.902   0.919   0.941   0.985   1.002   0.969   0.958   1.004   1.081   1.087   1.142   0.950   0.879   0.883   0.986   1.000   1.046   1.032   0.977   0.941   0.865   0.954   0.924   0.928   0.928   0.909   0.931   0.879   1.010   1.064   1.039   1.094   0.995   0.920   1.077   1.057   1.062   1.054
   141.00    1.025   1.005   0.951   0.878   0.864   0.901   0.954   0.933   0.995   0.896   0.952   1.101   1.106   1.054   0.983   0.944   0.993   0.969   1.048   1.100   1.133   0.951   0.850   0.949   0.903   0.884   0.837   0.879   0.861   0.909   0.909   0.926   0.999   1.023   1.029   0.988   0.881   1.035   1.119   1.102   1.100
   131.00    1.002   0.990   1.012   0.876   0.880   0.873   0.900   0.901   0.854   0.922   0.969   1.075   1.083   0.951   0.981   0.986   0.998   1.070   1.084   1.088   1.173   0.966   1.031   0.969   0.901   0.866   0.856   0.858   0.904   0.910   0.959   1.021   1.010   0.968   0.933   0.952   0.933   1.096   1.174   1.082   1.131
   121.00    0.937   1.013   0.957   0.827   0.955   0.784   0.888   1.018   0.929   0.925   0.980   1.115   1.092   0.963   1.014   1.011   0.930   0.930   1.042   1.015   1.094   1.018   0.963   0.936   0.877   0.854   0.954   0.838   0.864   0.805   0.975   1.042   1.105   0.852   0.913   0.828   0.921   1.020   1.110   0.991   1.104
   111.00    1.005   0.968   0.919   0.814   0.879   0.856   0.930   1.012   0.949   1.020   1.075   1.183   1.170   0.996   1.085   0.982   0.897   0.918   0.999   1.009   0.978   1.026   0.960   0.877   0.947   0.931   0.939   0.906   0.927   0.904   0.935   1.050   1.043   0.917   0.906   0.857   0.942   0.996   1.066   1.039   0.978
   101.00    0.976   0.949   0.928   0.903   0.975   0.925   0.949   1.001   1.002   1.015   1.015   1.104   1.133   1.023   1.001   0.942   0.962   0.949   0.986   0.946   0.993   1.019   1.018   1.085   0.968   0.955   0.917   1.035   1.048   0.948   0.966   1.060   1.000   0.946   0.925   0.992   0.996   1.013   1.050   1.081   0.975
    91.00    0.991   0.926   0.885   0.941   1.044   0.954   0.984   0.974   0.951   0.920   1.003   1.157   1.016   1.053   1.026   0.924   0.908   0.977   0.966   0.941   0.983   1.034   1.030   0.985   1.172   1.082   1.061   1.127   1.113   1.019   0.965   1.033   0.941   0.925   0.925   0.908   0.943   1.042   1.035   1.054   1.098
    81.00    1.085   0.923   0.904   0.924   1.060   0.976   1.015   0.925   1.005   1.023   1.136   1.103   1.056   1.013   0.937   0.831   0.949   0.894   0.993   1.051   1.017   1.017   1.060   1.017   1.209   1.073   1.004   1.054   1.113   1.016   1.081   0.910   0.982   1.013   0.960   0.984   0.855   1.009   1.011   1.064   1.021
    71.00    1.029   1.035   0.899   0.952   0.928   0.972   0.965   0.913   0.929   1.020   1.115   1.128   1.058   1.025   0.923   0.825   0.966   0.930   0.990   1.027   1.002   1.002   1.030   1.039   1.189   1.203   1.010   1.030   1.013   1.040   1.026   1.002   0.960   0.891   0.992   0.878   0.938   1.007   1.069   0.928   0.934
    61.00    1.012   1.068   0.947   0.952   0.977   0.885   0.928   0.931   0.936   0.992   1.023   1.066   1.082   1.034   0.990   0.888   0.879   0.850   0.979   0.931   0.932   0.929   0.974   1.023   1.093   1.135   1.001   1.045   1.001   1.040   0.986   1.011   0.947   1.054   0.928   0.851   1.010   0.989   0.961   1.035   1.003
    51.00    0.963   0.974   0.979   0.919   0.891   0.951   0.895   1.011   0.954   1.122   1.110   1.008   1.127   1.026   1.053   0.968   0.854   0.910   0.880   0.976   0.883   0.868   0.904   1.049   0.998   1.044   1.066   1.071   1.065   1.003   0.989   0.987   0.925   1.041   0.940   0.932   1.057   0.958   0.941   0.953   0.943
    41.00    0.902   0.900   0.960   0.985   0.963   0.966   0.910   0.927   0.999   1.097   1.063   1.080   1.037   1.071   1.063   1.007   0.952   0.878   0.898   1.013   0.960   0.945   0.984   1.014   1.069   1.030   1.101   1.090   1.133   1.039   0.989   1.083   1.018   1.034   0.972   0.925   0.962   0.960   0.962   0.912   0.972
    31.00    1.006   0.979   0.972   0.919   0.957   1.018   0.937   0.991   1.089   1.068   0.969   1.080   1.089   1.098   1.075   1.011   0.847   0.870   0.929   0.974   0.946   0.905   1.038   0.995   1.032   1.085   1.055   1.121   1.087   0.979   1.106   1.112   1.131   1.011   1.030   0.939   0.877   0.939   0.995   0.975   0.961
    21.00    1.100   0.955   0.952   0.902   0.993   0.924   0.984   1.031   1.094   1.049   0.988   0.978   1.026   1.047   1.025   1.066   0.782   0.906   0.912   0.969   0.967   0.919   1.000   0.890   0.981   1.023   0.968   1.115   1.139   0.980   1.082   1.059   1.015   0.985   1.079   0.994   1.044   0.947   0.871   0.910   0.867
    11.00    0.981   0.983   0.892   0.939   0.939   0.924   0.941   1.023   1.161   0.973   1.043   0.977   0.991   1.013   1.020   1.022   0.754   0.844   0.912   0.946   0.924   1.024   0.957   1.089   0.973   0.991   0.947   1.002   1.010   0.980   1.011   1.066   0.926   0.911   1.006   0.985   1.005   0.956   0.933   0.813   0.952
     1.00    0.974   1.011   0.914   0.901   0.943   0.937   0.970   1.072   1.043   1.059   1.038   1.031   0.911   0.893   1.022   0.960   0.838   0.881   0.897   1.029   0.947   1.081   1.092   1.035   1.022   0.939   0.890   0.919   0.963   0.921   0.917   0.913   0.934   0.971   0.926   0.928   0.933   0.951   0.903   0.836   0.912

   Mean standard deviation across all grid points:
      u component:    0.951 m/s
      v component:    0.956 m/s
      w component:    0.978 m/s


U-component (X) statistics from the interpolated hub point:

   Mean =  10.0066 m/s
   TI   =   9.0398 %


Processing complete.  8.7031 CPU seconds used.
