
This summary file was generated by TurbSim (from OpenFAST-v3.4.1) on 25-Nov-2024 at 22:24:51.


Runtime Options:

      2035  Random seed #1
         0  Random seed #2
         F  Output binary HH turbulence parameters?
         F  Output formatted turbulence parameters?
         F  Output AeroDyn HH files?
         T  Output AeroDyn FF files?
         F  Output BLADED FF files?
         F  Output tower data?
         F  Output HAWC FF files?
         F  Output formatted FF files?
         T  Output coherent turbulence time step file?
 0 -  NONE  IEC turbulence models scaled to exact specified standard deviation


Turbine/Model Specifications:

        31  Vertical grid-point matrix dimension
        41  Horizontal grid-point matrix dimension
     0.100  Time step [seconds]
   200.000  Analysis time [seconds]
   200.000  Usable output time [seconds]
   151.000  Hub height [m]
   300.000  Grid height [m]
   600.000  Grid width [m]
     0.000  Vertical flow angle [degrees]
     0.000  Horizontal flow angle [degrees]


Meteorological Boundary Conditions:

    IECVKM  IEC von Karman spectral model
         1  IEC standard: IEC 61400-1 Ed. 2: 1999
    10.000  Percent turbulence intensity, IEC 61400-1 Ed. 2: 1999
       NTM  IEC Normal Turbulence Model
       N/A  IEC Extreme Turbulence Model (ETM) "c" parameter [m/s]
       PL   Wind profile type
   150.000  Reference height [m]
    10.000  Reference wind speed [m/s]
       N/A  Jet height [m]
     0.100  Power law exponent
     0.030  Surface roughness length [m]


Non-IEC Meteorological Boundary Conditions:

       N/A  Site latitude [degrees]
       N/A  Gradient Richardson number
       N/A  Friction or shear velocity [m/s]
       N/A  Mixing layer depth [m]
       N/A  Mean hub u'w' Reynolds stress
       N/A  Mean hub u'v' Reynolds stress
       N/A  Mean hub v'w' Reynolds stress


Spatial Coherence Models:

       IEC  u-component coherence model
       IEC  v-component coherence model
       IEC  w-component coherence model
(   12.000, 0.659E-03)  u-component coherence parameters
(   12.000, 0.659E-03)  v-component coherence parameters
(   12.000, 0.659E-03)  w-component coherence parameters
       N/A  Coherence exponent


You have requested that the following file(s) be generated:

   ./TurbulentWind_20WT/FOWTs/Wind\InflowWind_High_WT11.bts (AeroDyn/TurbSim full-field wind file)


Turbulence Simulation Scaling Parameter Summary:

   Turbulence model used                            =  IEC von Karman
   Turbulence characteristic                        =  User-specified
   IEC standard                                     =  IEC 61400-1 Ed. 2: 1999
   Mean wind speed at hub height                    =   10.007 m/s
   Characteristic value of standard deviation       =    1.001 m/s
   Turbulence scale                                 =   21.000 m
   Isotropic integral scale                         =   73.500 m
   Characteristic value of hub turbulence intensity =   10.000%
   Gradient Richardson number                       =    0.000

   Wind profile type                                =  Power law
   Power law exponent                               =    0.100
   Mean shear across rotor disk                     =    0.016 (m/s)/m
   Assumed rotor diameter                           =  300.000 m
   Surface roughness length                         =    0.030 m

   Nyquist frequency of turbulent wind field        =    5.000 Hz

   Number of time steps in the FFT                  =     2600
   Number of time steps output                      =     2600
   Number of points simulated                       =     1271


Mean Flow Angles:

   Vertical   =   0.0 degrees
   Horizontal =   0.0 degrees

Mean Wind Speed Profile:

   Height    Wind Speed   Horizontal Angle  Vertical Angle  U-comp (X)   V-comp (Y)   W-comp (Z)
     (m)        (m/s)         (degrees)       (degrees)       (m/s)        (m/s)        (m/s)   
   ------    ----------   ----------------  --------------  ----------   ----------   ----------
    301.0       10.72            0.00            0.00         10.72         0.00         0.00
    291.0       10.69            0.00            0.00         10.69         0.00         0.00
    281.0       10.65            0.00            0.00         10.65         0.00         0.00
    271.0       10.61            0.00            0.00         10.61         0.00         0.00
    261.0       10.57            0.00            0.00         10.57         0.00         0.00
    251.0       10.53            0.00            0.00         10.53         0.00         0.00
    241.0       10.49            0.00            0.00         10.49         0.00         0.00
    231.0       10.44            0.00            0.00         10.44         0.00         0.00
    221.0       10.40            0.00            0.00         10.40         0.00         0.00
    211.0       10.35            0.00            0.00         10.35         0.00         0.00
    201.0       10.30            0.00            0.00         10.30         0.00         0.00
    191.0       10.24            0.00            0.00         10.24         0.00         0.00
    181.0       10.19            0.00            0.00         10.19         0.00         0.00
    171.0       10.13            0.00            0.00         10.13         0.00         0.00
    161.0       10.07            0.00            0.00         10.07         0.00         0.00
    151.0       10.01            0.00            0.00         10.01         0.00         0.00
    141.0        9.94            0.00            0.00          9.94         0.00         0.00
    131.0        9.87            0.00            0.00          9.87         0.00         0.00
    121.0        9.79            0.00            0.00          9.79         0.00         0.00
    111.0        9.70            0.00            0.00          9.70         0.00         0.00
    101.0        9.61            0.00            0.00          9.61         0.00         0.00
     91.0        9.51            0.00            0.00          9.51         0.00         0.00
     81.0        9.40            0.00            0.00          9.40         0.00         0.00
     71.0        9.28            0.00            0.00          9.28         0.00         0.00
     61.0        9.14            0.00            0.00          9.14         0.00         0.00
     51.0        8.98            0.00            0.00          8.98         0.00         0.00
     41.0        8.78            0.00            0.00          8.78         0.00         0.00
     31.0        8.54            0.00            0.00          8.54         0.00         0.00
     21.0        8.22            0.00            0.00          8.22         0.00         0.00
     11.0        7.70            0.00            0.00          7.70         0.00         0.00
      1.0        6.06            0.00            0.00          6.06         0.00         0.00


Harvested Random Seeds after Generation of the Random Numbers:

    311374773 Harvested seed # 1
   1971657505 Harvested seed # 2


Hub-Height Simulated Turbulence Statistical Summary:

   Type of Wind        Min (m/s)   Mean (m/s)    Max (m/s)  Sigma (m/s)       TI (%)
   ----------------    ---------   ----------    ---------  -----------       ------
   Longitudinal (u)         7.26        10.01        12.73        0.769        7.684
   Lateral (v)             -2.49         0.00         2.85        0.933        9.326
   Vertical (w)            -2.55        -0.00         3.15        1.007       10.064
   U component              7.26        10.01        12.73        0.769        7.684
   V component             -2.49         0.00         2.85        0.933        9.326
   W component             -2.55        -0.00         3.15        1.007       10.064
   Horizontal (U&V)         7.26        10.05        12.73        0.767        7.634
   Total                    7.28        10.10        12.73        0.767        7.592

                       Min Reynolds     Mean Reynolds    Max Reynolds    Correlation
   Product             Stress (m/s)^2   Stress (m/s)^2   Stress (m/s)^2  Coefficient
   ----------------    --------------   --------------   --------------  -----------
   u'w'                     -3.694            -0.041             4.476        -0.053
   u'v'                     -3.527             0.101             3.793         0.141
   v'w'                     -4.441            -0.042             5.626        -0.045


   Friction Velocity (Ustar)  =      0.203 m/s
   Maximum Instantaneous TKE  =      5.757 (m/s)^2
   Maximum Instantaneous CTKE =      2.834 (m/s)^2


Grid Point Variance Summary:

   Y-coord -300.00 -285.00 -270.00 -255.00 -240.00 -225.00 -210.00 -195.00 -180.00 -165.00 -150.00 -135.00 -120.00 -105.00  -90.00  -75.00  -60.00  -45.00  -30.00  -15.00    0.00   15.00   30.00   45.00   60.00   75.00   90.00  105.00  120.00  135.00  150.00  165.00  180.00  195.00  210.00  225.00  240.00  255.00  270.00  285.00  300.00

   Height   Standard deviation at grid points for the u component:
   301.00    0.976   0.919   1.022   1.050   1.063   1.051   1.057   1.094   1.089   0.942   0.899   0.841   0.877   0.899   0.870   0.824   0.813   0.861   0.998   1.026   1.108   1.112   1.050   1.018   0.833   0.933   0.929   0.796   0.893   1.026   1.041   0.938   0.893   0.928   0.920   1.028   1.000   0.886   0.793   0.838   0.932
   291.00    1.080   0.994   0.991   1.020   1.025   1.110   1.057   1.022   1.126   1.016   0.994   0.784   0.782   0.885   0.853   0.764   0.779   0.869   0.911   1.062   1.068   1.023   1.014   0.979   0.854   1.002   0.915   0.912   1.013   1.122   1.089   0.941   0.902   1.008   0.942   0.910   0.947   1.001   0.934   1.016   1.006
   281.00    0.934   0.962   0.893   0.998   1.015   0.965   0.944   0.969   0.988   0.920   1.042   0.862   0.862   0.953   0.845   0.909   0.886   0.816   0.900   1.049   1.091   1.144   1.191   0.989   0.928   0.949   0.901   0.955   0.950   1.080   1.096   1.021   0.903   0.920   0.966   0.977   1.047   1.027   0.915   1.096   1.266
   271.00    0.837   1.002   0.865   0.993   1.001   0.882   0.829   0.935   1.050   0.935   0.994   1.032   1.058   0.921   0.948   0.826   0.877   0.837   1.066   1.029   0.995   1.092   1.076   1.077   0.989   1.050   0.948   0.888   0.969   1.027   1.062   1.006   0.975   0.925   0.831   0.931   0.948   1.064   0.969   1.158   1.235
   261.00    0.886   1.091   1.065   1.163   0.996   0.832   0.905   0.863   0.948   0.989   1.069   0.938   0.965   0.870   0.841   0.850   0.843   0.933   1.071   1.105   1.183   1.180   1.341   1.159   0.968   0.964   1.124   1.029   1.020   0.959   1.024   1.036   0.895   0.923   0.855   0.887   0.876   1.021   1.136   1.186   1.135
   251.00    0.956   1.095   1.020   1.148   1.056   0.998   0.982   0.951   1.076   0.988   0.962   0.958   0.848   0.774   0.804   0.887   0.801   0.962   1.037   1.103   1.115   1.109   1.221   1.177   1.094   1.041   1.043   1.093   1.026   1.036   0.928   1.070   0.966   1.020   0.931   0.867   0.970   1.039   1.079   1.180   1.077
   241.00    0.958   1.109   1.079   1.126   1.037   1.039   1.050   0.917   1.048   0.991   1.020   0.965   0.847   0.876   0.955   0.890   0.844   0.881   0.995   0.970   0.996   0.960   1.178   1.020   1.105   1.106   0.985   1.090   1.035   1.115   1.031   1.035   1.025   0.997   0.898   0.920   0.992   1.005   0.879   1.040   1.097
   231.00    0.884   1.042   1.149   1.096   1.164   0.967   0.836   1.033   0.988   1.173   1.132   1.022   0.885   0.851   0.910   0.954   0.930   0.956   1.034   0.966   0.975   0.942   1.090   1.078   1.059   0.981   1.055   0.995   1.021   1.039   0.951   1.069   1.034   1.008   0.983   0.877   0.925   0.883   0.975   1.066   0.992
   221.00    0.928   1.124   1.173   1.089   1.074   0.955   0.977   1.138   1.144   1.063   1.075   1.069   0.868   0.897   0.922   0.881   0.993   1.050   1.060   1.013   0.963   0.924   0.942   0.943   1.054   0.993   1.040   1.055   1.033   1.012   1.022   1.093   1.028   0.948   0.984   0.945   0.940   0.850   0.925   1.050   1.016
   211.00    0.964   0.981   1.011   0.997   0.990   0.905   1.006   1.092   1.056   1.061   1.030   1.037   0.824   0.939   0.873   0.836   0.868   1.071   1.084   0.981   0.923   0.888   0.832   0.913   0.905   0.970   1.015   0.848   0.891   0.943   1.065   1.014   0.964   0.899   1.046   0.878   0.973   0.898   0.941   0.915   0.981
   201.00    1.035   0.928   0.914   0.972   1.025   0.927   0.934   0.976   1.071   1.027   0.934   0.932   0.879   1.015   1.018   0.808   0.944   1.044   1.068   0.882   0.882   0.950   0.955   0.963   0.903   0.897   0.892   0.897   0.858   0.930   1.103   1.161   0.976   0.923   0.992   0.954   1.028   0.942   0.984   0.841   0.944
   191.00    0.935   0.983   0.917   0.855   0.905   0.928   0.918   0.886   0.936   0.994   0.852   0.924   0.968   0.963   1.003   1.010   0.962   0.942   0.872   0.925   0.781   0.876   0.960   0.940   0.887   0.924   0.848   0.833   0.888   0.887   1.052   1.125   1.024   0.879   0.976   0.889   0.984   0.919   0.881   0.921   0.888
   181.00    1.031   1.019   0.902   0.859   0.857   0.874   0.812   0.882   0.845   0.978   0.867   0.883   0.954   0.986   0.943   0.915   1.070   0.982   0.891   0.801   0.731   0.785   0.877   0.943   0.988   0.951   0.937   0.811   0.833   0.868   1.022   1.038   0.991   0.956   1.058   1.028   1.029   0.933   0.858   0.886   0.985
   171.00    1.052   1.062   0.964   0.825   0.912   0.927   0.888   0.835   0.777   0.994   0.949   0.937   0.909   0.933   0.978   0.983   1.142   0.981   0.872   0.810   0.834   0.862   0.864   0.954   1.018   1.050   1.062   0.908   0.871   0.997   1.078   1.043   0.942   0.949   0.918   1.003   0.951   0.848   0.959   0.946   0.999
   161.00    0.922   0.992   0.918   0.983   0.859   1.048   0.902   0.934   0.984   1.103   0.985   0.881   0.962   0.945   0.948   1.005   1.050   0.944   0.835   0.783   0.723   0.827   0.829   0.965   0.923   0.975   0.987   0.991   0.891   0.966   1.121   1.070   0.820   0.880   0.893   0.965   0.911   0.882   0.932   0.907   0.825
   151.00    1.000   1.007   0.809   0.817   0.886   1.036   0.949   0.913   0.982   1.055   1.028   0.913   0.911   0.989   0.969   0.953   0.939   0.887   0.736   0.774   0.769   0.845   0.904   0.974   0.958   1.001   0.943   0.931   1.065   1.104   1.020   1.169   0.990   0.972   0.984   0.959   1.005   0.958   0.992   0.865   0.855
   141.00    0.875   0.918   0.922   0.738   0.762   0.933   0.842   0.865   0.987   1.072   0.913   0.905   0.876   1.105   1.040   1.048   0.990   0.837   0.792   0.845   0.853   0.929   0.951   1.001   1.126   1.120   0.997   1.053   0.935   1.094   0.987   1.209   1.060   1.047   1.014   1.002   1.002   0.871   0.849   0.884   0.991
   131.00    0.998   0.791   0.883   0.899   0.884   0.972   0.962   0.846   1.102   1.054   0.946   0.937   1.041   1.056   0.878   0.919   0.844   0.841   0.829   0.771   0.844   1.007   0.986   1.037   1.209   1.162   0.987   0.960   1.049   0.957   0.897   1.130   1.102   1.081   1.012   0.917   0.959   0.919   0.894   0.962   0.904
   121.00    0.859   0.907   0.904   0.903   0.971   1.054   0.964   1.003   1.076   0.996   1.055   1.001   1.054   1.016   0.873   0.937   0.851   0.863   0.874   0.865   0.947   1.019   0.899   1.136   1.207   1.064   1.012   0.941   0.866   0.995   0.935   1.065   1.151   1.076   1.024   1.039   0.959   0.925   0.862   0.860   0.931
   111.00    0.810   0.972   0.888   0.815   0.855   0.948   1.019   1.148   1.061   0.961   1.006   0.985   1.021   0.942   0.915   0.844   0.883   0.978   0.887   0.884   0.901   1.061   0.932   1.139   1.166   1.112   0.999   0.947   0.883   1.086   0.928   1.032   1.114   1.063   1.143   0.975   0.845   0.799   0.787   0.855   1.026
   101.00    0.897   0.937   0.761   0.815   0.872   1.035   1.089   1.054   1.105   1.081   0.965   0.998   0.938   0.973   0.929   0.951   0.833   0.916   0.896   0.911   0.951   1.027   1.003   1.176   1.317   1.126   0.976   0.925   0.948   1.082   0.972   1.100   1.145   1.101   1.016   0.788   0.871   0.911   0.789   0.839   0.994
    91.00    0.828   0.888   0.887   0.876   1.065   1.065   1.154   1.075   1.069   1.071   1.002   1.005   0.839   1.042   1.028   1.041   0.956   0.969   0.881   0.895   0.926   1.053   1.131   1.218   1.312   1.069   1.148   1.029   1.029   1.004   1.036   0.981   1.082   1.043   0.968   0.933   0.889   0.882   0.819   0.823   0.945
    81.00    0.883   0.917   1.013   0.997   1.040   1.098   1.085   0.984   1.105   1.078   0.967   1.013   1.001   1.066   1.001   1.146   0.999   0.970   0.940   0.963   0.969   1.037   1.208   1.234   1.163   0.967   0.935   1.073   1.022   1.031   1.103   0.925   1.048   1.077   0.878   0.906   0.991   0.977   0.851   0.800   0.892
    71.00    0.837   0.921   1.035   0.967   1.054   1.165   1.054   0.925   0.996   1.019   1.054   1.138   0.963   1.031   1.049   1.090   0.964   0.971   0.998   1.094   1.143   1.223   1.300   1.132   1.041   0.902   0.970   1.030   1.046   1.050   1.079   0.970   0.996   0.981   1.023   0.993   0.934   0.895   0.816   0.842   0.904
    61.00    0.901   1.075   1.080   1.011   1.112   1.051   1.065   0.953   0.990   1.069   1.132   1.083   0.954   0.972   1.074   1.120   1.111   0.863   1.030   1.134   1.234   1.148   1.196   1.134   1.064   0.891   0.902   0.914   0.973   0.927   0.958   0.989   0.983   0.904   0.942   0.940   0.860   0.932   0.876   0.843   0.856
    51.00    0.956   0.988   1.061   0.987   1.088   0.956   0.962   1.001   0.933   1.168   1.172   1.145   1.055   1.054   0.988   1.029   1.067   0.957   1.122   1.139   1.300   1.201   1.122   1.057   1.047   0.987   0.912   0.888   0.895   0.943   0.824   0.835   1.014   0.926   0.909   0.873   0.949   0.871   0.900   0.906   0.844
    41.00    0.939   0.982   1.114   1.074   1.058   1.002   0.912   0.998   0.995   1.029   1.108   1.175   1.007   1.060   0.954   0.984   1.030   1.022   1.162   1.196   1.163   1.229   1.196   1.045   1.080   0.940   0.923   0.851   0.823   0.811   0.906   0.836   0.989   1.041   0.852   0.928   1.019   0.968   0.838   0.833   0.862
    31.00    0.860   0.941   1.038   0.887   0.965   0.985   0.938   1.068   0.990   0.956   0.929   1.045   0.998   1.001   0.936   0.983   0.979   1.163   1.118   1.011   1.098   1.232   1.054   0.983   1.011   0.916   0.854   0.801   0.773   0.810   0.945   0.851   0.949   0.992   0.974   0.957   0.980   0.974   0.861   0.871   0.790
    21.00    0.968   0.983   0.960   0.892   0.948   0.967   1.080   1.075   0.984   0.834   0.901   0.857   0.926   1.088   0.906   0.894   0.954   1.122   1.055   1.046   1.020   1.121   1.143   1.032   0.946   0.956   0.857   0.849   0.803   0.827   0.854   0.828   0.964   1.013   1.040   0.957   0.995   1.007   0.904   0.795   0.836
    11.00    0.989   0.995   0.961   0.869   1.043   1.052   1.046   1.091   0.923   0.927   0.915   0.844   0.873   1.002   0.940   0.892   1.014   1.088   1.030   1.069   1.026   1.052   1.121   0.920   1.027   0.880   0.895   0.850   0.909   0.907   0.967   0.918   0.958   0.920   0.871   0.919   0.946   1.061   1.001   0.909   0.845
     1.00    0.963   0.966   0.909   0.901   0.971   1.031   1.111   1.084   0.911   0.876   1.004   0.829   0.911   0.989   1.000   0.979   0.856   0.976   0.970   1.021   1.101   1.148   1.033   0.968   0.994   0.975   0.904   0.885   0.906   0.954   1.035   0.960   0.947   0.822   0.886   0.893   0.948   0.899   0.930   0.977   0.877

   Height   Standard deviation at grid points for the v component:
   301.00    0.938   0.908   0.977   1.002   0.914   0.859   0.860   0.987   1.015   1.040   1.033   1.134   0.966   1.037   1.079   1.140   1.017   1.089   1.004   0.933   0.879   0.867   0.797   0.854   0.836   0.917   0.993   0.886   0.952   1.064   1.052   0.871   0.992   0.900   0.883   0.850   0.808   0.896   0.919   0.962   0.911
   291.00    0.883   0.880   0.929   0.911   0.945   0.892   0.867   0.992   0.966   1.010   1.046   1.051   1.016   0.994   1.035   1.013   0.951   0.950   0.990   1.045   0.948   0.890   0.965   0.860   0.910   0.916   0.902   0.984   1.031   1.024   0.971   0.896   1.022   0.949   0.900   0.806   0.811   0.897   0.943   0.899   0.882
   281.00    0.998   0.959   1.005   0.920   0.901   0.809   0.788   0.901   0.900   0.978   0.961   0.963   0.977   0.927   0.941   1.035   0.871   0.981   0.969   1.041   0.918   0.855   0.908   0.872   0.875   0.897   0.887   0.924   0.998   0.960   0.966   0.891   1.054   0.901   0.936   0.826   0.861   0.928   0.976   0.905   0.948
   271.00    0.941   0.926   0.918   0.884   0.891   0.875   0.880   0.985   1.019   1.032   1.007   0.891   0.904   0.894   0.876   0.987   0.891   0.918   0.960   1.016   0.947   0.886   0.905   0.812   0.879   0.827   0.941   0.918   1.004   1.009   0.992   0.999   1.049   0.995   0.947   0.869   0.874   0.899   0.947   1.015   0.986
   261.00    0.975   0.838   0.815   0.877   0.883   0.987   0.891   0.922   0.960   0.948   0.961   0.861   0.821   0.868   0.957   0.983   0.976   0.894   0.948   0.950   0.915   0.918   0.847   0.809   0.919   0.881   0.934   0.950   1.044   1.038   1.008   0.926   0.925   0.971   0.920   0.861   0.878   0.927   0.913   0.980   0.961
   251.00    0.961   0.973   0.854   0.875   0.920   0.965   0.848   0.997   0.908   0.889   0.913   0.867   0.834   0.919   0.968   0.975   0.992   0.965   0.974   0.841   0.912   0.945   0.852   0.871   0.874   0.932   0.916   0.963   0.891   1.015   0.969   1.002   0.932   0.917   0.854   0.895   0.924   0.914   0.907   0.909   0.990
   241.00    0.897   0.894   0.868   0.887   0.985   0.900   0.885   0.928   0.832   0.866   0.954   0.853   0.869   0.845   0.905   0.949   0.941   1.049   1.125   0.998   0.944   1.001   0.948   0.887   0.878   0.918   0.936   0.969   0.981   0.951   0.938   0.905   0.869   0.926   0.874   0.885   0.947   0.993   0.945   0.923   0.971
   231.00    0.941   0.831   0.883   0.851   0.971   0.911   0.861   0.837   0.825   0.812   0.869   0.872   0.931   0.886   0.965   0.971   0.981   0.964   1.027   1.094   0.978   0.873   0.932   0.839   0.884   0.937   0.905   0.978   0.940   0.982   0.893   0.911   0.878   0.888   0.860   0.886   0.869   0.962   0.920   0.874   0.828
   221.00    0.956   0.903   0.864   0.922   0.964   0.875   0.892   0.907   0.859   0.872   0.804   0.936   0.953   0.866   0.976   0.954   0.992   1.035   1.106   1.020   0.996   1.036   0.909   0.906   0.842   0.883   0.872   0.944   0.932   0.946   0.937   0.901   0.857   0.956   0.838   0.947   0.880   0.973   0.843   0.950   0.924
   211.00    0.871   0.914   0.868   0.964   0.978   0.994   0.935   0.902   0.794   0.801   0.831   0.911   0.893   0.962   0.969   1.016   1.002   0.923   1.047   1.022   1.091   1.029   0.999   0.980   0.898   0.899   0.889   0.973   0.914   0.883   0.964   0.934   0.813   0.941   0.969   1.001   0.953   1.045   0.886   0.957   0.920
   201.00    1.042   0.964   0.954   0.919   0.908   1.002   0.962   0.964   0.849   0.877   0.869   0.827   0.875   0.890   0.914   0.912   0.885   0.831   0.960   1.128   1.088   1.061   0.955   0.974   0.936   0.862   0.973   0.951   0.960   0.885   0.949   0.866   0.880   0.920   0.889   1.017   1.023   0.986   0.940   0.943   0.912
   191.00    1.041   1.074   0.991   0.877   0.851   0.988   0.916   0.974   1.025   0.869   1.009   0.863   0.813   0.885   0.843   0.862   0.890   0.953   0.921   1.118   1.037   1.010   0.944   0.963   0.907   0.909   0.933   0.953   0.898   0.915   0.951   0.844   0.946   1.016   0.985   0.998   1.005   0.867   0.902   0.905   0.887
   181.00    0.953   1.085   1.031   0.935   0.872   1.020   1.082   1.146   1.026   1.008   1.057   1.054   0.933   0.884   0.824   0.857   0.842   0.962   0.957   1.037   1.087   0.911   0.943   0.930   0.946   0.881   0.920   0.960   0.956   0.936   0.887   0.932   0.928   0.993   0.963   1.056   1.100   0.942   0.857   0.994   1.034
   171.00    1.001   1.038   0.965   0.941   0.989   0.960   1.046   1.102   0.948   0.985   1.093   1.070   0.936   0.848   0.888   0.846   0.908   0.923   0.844   1.002   1.145   0.971   0.939   0.864   0.840   0.867   0.948   0.987   0.925   0.912   0.870   0.890   0.881   0.952   1.137   1.094   1.093   0.935   0.923   1.019   1.031
   161.00    0.945   1.011   0.908   0.964   0.915   0.977   0.931   0.997   1.032   1.055   0.999   0.944   0.892   0.944   0.854   0.876   0.838   0.912   0.928   0.924   0.992   1.016   0.981   0.986   1.020   0.923   0.985   0.961   0.922   0.898   0.924   0.950   0.945   1.063   1.117   1.044   1.054   1.024   1.077   1.000   1.067
   151.00    0.929   0.993   1.052   0.853   0.987   1.027   0.988   0.999   0.893   0.954   0.946   0.926   0.824   0.896   0.928   0.941   0.935   0.914   0.886   1.016   0.933   1.019   1.024   0.933   0.958   1.007   0.954   0.949   0.916   0.945   0.978   1.006   0.977   1.038   1.133   1.098   1.077   1.036   1.047   0.977   1.095
   141.00    0.901   0.967   1.053   0.940   1.031   1.009   0.925   0.916   0.887   0.957   0.996   0.880   0.960   0.927   0.878   0.924   0.947   0.937   0.977   0.960   0.971   0.980   0.981   0.891   1.016   0.895   1.009   1.023   0.997   1.066   1.009   1.021   1.110   1.048   1.011   1.095   1.093   1.012   0.967   1.040   1.030
   131.00    0.854   0.933   0.970   0.867   1.007   0.923   0.932   0.908   0.904   0.973   0.964   0.859   0.967   0.890   0.862   0.992   0.903   0.875   0.887   1.000   1.004   0.950   0.957   0.974   0.919   0.937   0.962   1.038   1.090   1.057   0.996   1.022   1.058   1.107   0.995   1.002   1.109   0.972   1.000   0.964   0.978
   121.00    0.884   0.889   0.892   0.899   0.953   0.926   0.914   0.880   0.887   0.949   0.954   0.869   0.996   0.889   0.932   0.944   0.897   0.862   0.894   1.006   1.068   1.104   1.012   0.974   1.046   1.021   1.047   1.005   1.064   1.065   1.004   1.043   1.056   1.015   1.026   1.019   1.078   1.065   0.989   0.957   1.005
   111.00    0.936   0.882   0.890   0.957   0.947   1.004   0.854   0.910   0.918   0.917   0.971   0.833   0.875   0.835   0.891   0.891   0.937   0.890   0.813   0.981   1.083   1.007   0.967   0.923   0.981   1.025   1.015   0.964   0.933   1.056   1.076   1.029   1.094   0.916   1.020   1.036   1.036   0.945   0.940   0.835   1.013
   101.00    0.791   0.878   0.936   0.852   0.962   0.965   0.933   0.895   0.819   0.892   0.899   0.791   0.838   0.808   0.902   0.887   0.936   0.970   0.882   0.952   1.086   1.026   0.933   0.947   1.035   1.004   0.954   0.972   0.941   1.073   1.220   1.106   1.016   0.929   1.071   0.981   1.029   0.930   0.896   0.849   0.916
    91.00    0.890   0.888   0.902   0.883   0.876   0.918   0.923   0.929   1.010   0.937   0.874   0.831   0.838   0.886   0.864   0.958   0.925   0.926   0.861   0.940   1.040   0.997   0.973   0.981   1.068   1.031   0.897   0.983   0.958   1.075   1.118   1.203   0.998   1.029   1.109   1.019   0.991   0.994   0.926   0.824   1.053
    81.00    0.979   0.903   0.928   0.861   0.853   0.948   0.917   0.985   0.989   1.014   0.899   0.919   0.851   0.848   0.925   0.958   0.912   0.958   0.912   0.871   0.952   0.990   0.967   0.910   0.963   1.062   1.033   1.174   1.139   1.007   1.108   1.171   1.124   0.959   0.903   0.979   0.929   0.967   0.964   0.993   1.102
    71.00    0.966   0.915   0.960   0.867   0.874   0.970   0.826   0.924   0.989   1.114   1.093   1.058   0.932   1.043   0.945   0.873   0.940   0.917   0.895   0.876   0.939   0.991   0.968   0.915   0.950   1.012   1.067   1.127   1.046   1.081   1.068   0.985   0.991   0.973   0.932   0.980   0.959   0.845   0.850   0.927   1.133
    61.00    1.029   0.910   0.952   0.952   0.871   0.942   0.950   0.958   1.079   1.015   1.005   1.037   0.931   1.009   0.962   0.990   0.877   0.935   0.922   0.889   0.900   0.942   0.937   0.909   0.940   0.953   0.896   1.056   0.991   0.972   1.020   0.901   0.904   0.951   0.917   0.989   1.000   0.962   0.854   0.951   1.006
    51.00    1.053   1.015   1.106   1.060   0.980   0.966   0.981   1.069   1.145   1.086   1.079   1.072   1.101   0.983   0.966   0.899   0.866   0.867   0.870   0.892   0.914   1.007   0.950   0.842   0.904   0.892   0.899   0.998   1.015   0.919   1.026   0.934   0.925   0.924   0.954   1.062   1.021   0.959   0.888   0.962   1.033
    41.00    0.984   1.050   1.052   1.028   1.027   1.005   1.040   1.032   1.135   1.190   1.114   1.160   1.099   0.991   0.873   0.895   0.936   0.825   0.827   0.886   1.020   0.952   0.977   0.796   0.839   0.942   0.950   0.902   0.960   1.089   1.098   0.976   0.938   1.053   0.969   1.041   0.961   0.935   1.008   1.064   1.138
    31.00    1.029   0.934   1.030   0.892   0.982   0.984   1.116   1.100   1.114   1.041   1.087   1.147   1.151   1.055   0.871   0.943   0.927   0.933   0.971   1.037   1.068   0.967   0.933   0.921   0.937   0.923   1.032   1.092   0.937   1.143   1.212   1.007   0.948   1.047   0.990   1.037   1.005   0.933   0.967   1.004   1.074
    21.00    0.942   0.909   0.904   0.968   1.039   0.862   1.034   1.069   1.120   1.028   1.122   1.151   1.058   1.083   0.949   0.981   0.968   0.995   0.968   1.132   1.102   0.943   0.851   0.936   0.918   0.911   1.040   0.998   1.093   1.090   1.114   1.011   0.944   0.998   0.967   1.041   1.058   0.942   1.028   0.934   1.043
    11.00    1.006   0.959   0.922   1.041   1.007   1.002   1.059   1.026   1.162   1.072   1.031   1.055   0.977   0.998   0.948   0.974   0.935   1.014   1.007   0.958   0.963   0.926   0.867   0.814   0.940   0.998   0.909   0.964   0.994   1.027   1.019   0.916   0.918   0.999   1.049   1.024   1.086   1.018   1.002   1.005   1.038
     1.00    0.974   0.884   0.964   1.097   1.033   0.945   1.061   1.077   1.094   1.065   1.080   1.056   1.030   1.019   1.021   1.061   0.925   1.051   0.939   0.915   0.875   0.976   0.884   0.823   0.957   0.936   0.913   0.967   1.042   0.995   0.999   0.998   0.956   0.980   0.977   0.999   1.003   1.048   0.965   1.003   0.986

   Height   Standard deviation at grid points for the w component:
   301.00    0.991   0.930   0.982   1.017   0.980   1.022   1.121   0.944   1.060   0.993   1.003   0.910   0.975   1.022   1.055   1.000   0.956   0.879   0.891   0.904   1.015   0.913   1.024   0.908   1.016   0.934   0.948   0.877   0.953   0.860   0.833   0.934   1.036   1.001   1.016   1.003   1.065   0.968   0.968   1.121   1.053
   291.00    1.012   0.874   0.977   1.010   0.983   1.039   1.146   1.052   0.993   1.032   1.033   0.993   0.947   0.992   1.030   0.939   1.022   0.857   0.868   0.910   0.950   0.871   0.972   0.912   0.937   0.887   0.942   0.987   0.852   0.883   0.831   0.923   0.949   0.977   0.975   1.058   1.034   0.992   1.039   1.121   1.077
   281.00    0.994   0.912   0.931   0.986   0.972   1.174   1.176   1.018   1.031   1.004   1.022   0.975   0.968   0.850   0.929   0.953   0.941   0.857   0.782   0.916   0.922   0.975   1.000   1.070   1.054   0.874   0.933   0.866   0.850   0.803   0.855   0.927   0.916   0.838   0.992   0.969   0.989   1.009   1.043   1.069   0.997
   271.00    1.026   0.969   0.964   1.054   1.128   1.061   1.146   0.969   0.928   1.033   1.010   0.982   0.872   0.875   0.877   0.841   0.938   0.821   0.871   1.018   0.955   0.960   0.967   1.027   1.042   0.938   0.987   0.859   0.917   0.859   0.859   0.954   0.969   0.987   0.964   0.901   0.970   1.061   1.084   1.057   0.959
   261.00    1.095   1.075   0.948   1.018   1.048   1.122   1.042   0.997   0.943   1.086   0.986   0.906   0.844   0.923   0.906   0.919   0.887   0.837   0.858   0.920   0.953   1.000   0.960   0.943   1.023   1.022   1.005   0.957   0.943   0.892   0.928   0.994   1.097   1.008   0.900   0.905   0.944   1.021   1.043   1.087   1.024
   251.00    1.054   0.946   0.901   0.926   0.968   1.128   1.018   0.979   1.038   1.027   1.105   0.963   0.938   0.884   0.984   0.984   0.901   0.946   0.888   0.817   1.013   1.039   1.002   0.952   0.941   0.967   0.905   0.931   0.914   0.861   0.876   0.866   0.923   0.924   0.918   0.926   0.974   0.944   0.945   1.000   1.000
   241.00    1.037   0.998   0.982   1.026   1.051   1.076   0.998   0.902   1.037   1.064   1.099   0.950   0.809   0.927   0.985   1.036   0.945   0.975   1.015   0.953   0.929   1.066   0.918   0.988   1.009   0.924   0.874   0.858   0.967   1.018   0.996   0.981   0.944   0.847   0.917   0.925   0.834   0.985   1.027   0.978   1.035
   231.00    0.954   0.954   0.942   0.966   1.018   1.039   1.023   0.960   1.029   1.040   0.951   1.032   0.866   0.957   0.956   0.908   0.904   0.873   0.955   0.929   0.887   1.000   0.992   1.037   0.904   0.981   0.932   0.848   0.807   0.937   1.051   0.953   0.876   0.871   0.899   0.864   0.921   0.941   0.992   0.990   0.928
   221.00    0.924   0.917   0.861   0.966   0.987   0.954   1.010   1.007   1.010   0.989   1.044   1.013   0.966   0.984   0.883   0.849   0.938   0.835   0.884   0.847   0.854   0.978   1.066   0.996   0.998   0.953   0.934   0.946   0.917   0.976   1.040   1.097   0.855   0.878   0.930   0.883   0.935   0.958   1.051   0.886   0.941
   211.00    0.937   0.913   0.931   0.872   1.032   0.969   0.971   0.989   1.080   0.911   1.057   1.124   1.093   1.025   0.923   0.902   0.866   0.844   0.818   0.811   0.898   0.931   1.118   1.013   1.005   0.958   0.951   0.924   0.930   0.951   0.940   0.935   0.901   0.924   0.897   0.956   0.896   0.852   1.069   1.021   0.997
   201.00    0.911   0.901   0.828   0.946   1.061   0.964   0.911   0.918   0.912   1.033   1.029   1.047   1.084   1.062   0.997   0.975   0.888   0.782   0.902   0.879   0.929   1.002   1.068   1.074   0.939   0.977   0.882   0.803   0.928   0.958   0.996   0.926   0.924   0.880   0.957   0.859   0.944   1.065   1.129   1.057   0.972
   191.00    0.921   0.923   0.918   0.974   1.019   0.989   0.954   1.040   0.935   1.003   1.052   1.116   1.073   1.088   0.964   0.935   0.941   0.810   0.840   0.922   1.001   1.055   0.980   0.999   0.950   0.868   0.862   0.711   0.980   1.017   1.000   0.906   0.906   0.879   0.809   0.937   0.909   0.986   1.121   1.054   0.995
   181.00    0.848   0.911   0.968   0.959   1.051   0.983   1.130   1.032   1.031   1.066   1.049   0.923   1.106   1.110   0.858   1.043   1.040   0.915   0.836   0.900   0.930   1.011   1.028   0.994   1.012   0.965   0.969   0.931   0.995   0.981   0.971   1.030   1.011   0.849   0.855   0.935   0.984   0.964   0.973   1.062   1.089
   171.00    0.936   0.869   0.946   1.034   0.997   1.008   1.085   1.124   1.011   1.046   0.946   1.052   1.067   1.066   0.893   1.074   1.043   0.921   0.871   0.916   0.948   0.949   0.981   0.974   1.111   1.047   1.038   0.992   0.998   0.994   0.820   0.988   0.904   0.852   0.936   0.853   0.906   0.951   1.044   1.024   1.004
   161.00    0.895   0.892   1.019   1.039   1.060   0.992   1.004   1.161   1.168   0.978   0.988   0.985   1.046   1.019   1.067   0.938   1.067   1.062   0.853   0.992   0.978   0.907   0.984   1.081   1.101   1.057   1.012   1.002   1.063   0.980   0.958   0.976   0.951   0.851   0.953   0.994   0.931   0.960   1.052   1.066   0.983
   151.00    0.942   0.976   0.988   1.014   1.064   0.984   1.130   1.032   1.077   0.973   1.025   1.008   1.071   0.951   0.987   1.039   0.945   1.040   0.949   0.912   1.007   0.867   0.932   0.938   1.111   1.027   1.097   1.039   1.162   1.158   0.902   0.948   0.803   0.833   0.962   1.031   0.912   0.962   1.053   1.005   0.965
   141.00    0.947   0.948   0.969   1.037   1.025   1.066   1.047   1.039   1.035   0.993   0.942   1.040   0.995   1.027   0.912   0.979   0.869   0.892   0.799   0.841   0.992   0.924   0.835   0.979   1.005   1.035   0.984   1.034   1.106   1.054   1.039   0.882   0.831   0.938   0.962   0.955   1.002   0.978   0.956   0.925   1.019
   131.00    1.039   1.011   1.026   0.892   0.917   0.985   1.004   0.966   0.998   0.944   0.911   1.016   0.934   1.002   0.955   0.956   0.962   0.838   0.812   0.917   0.946   0.923   0.924   0.934   1.035   0.994   0.957   1.065   0.988   1.008   0.989   0.890   0.871   0.868   0.962   0.896   0.907   0.973   1.007   0.956   1.136
   121.00    0.980   0.988   0.919   0.922   0.971   0.952   0.876   0.876   0.912   0.903   0.924   0.930   0.933   0.993   0.936   0.940   0.863   0.862   0.866   0.950   0.952   1.022   0.863   0.886   0.936   0.932   0.995   0.958   0.913   0.885   0.941   0.902   0.831   0.878   0.978   1.006   0.921   0.994   1.008   0.922   1.046
   111.00    0.963   1.022   1.014   0.955   1.019   0.963   1.032   0.855   0.844   0.858   0.880   0.878   0.946   0.906   0.881   0.892   0.951   0.881   0.942   0.959   0.905   0.919   0.954   0.962   0.918   0.926   0.903   0.849   0.903   0.922   0.839   0.822   0.860   0.911   0.977   0.973   0.948   0.873   0.946   1.004   0.949
   101.00    0.939   1.023   0.947   0.947   0.991   1.002   1.111   0.923   0.903   0.885   0.844   0.897   0.831   0.911   0.921   0.923   0.934   0.932   0.887   0.998   0.902   0.868   0.930   0.925   1.003   0.881   1.004   0.870   0.882   0.883   0.887   0.843   0.926   0.989   0.898   0.979   0.920   0.956   0.935   0.928   0.874
    91.00    0.937   1.020   0.889   0.988   1.038   0.998   0.996   0.980   0.986   0.969   0.860   0.875   0.775   0.974   0.975   1.007   0.945   0.962   0.842   0.930   0.900   0.964   0.996   1.031   1.076   1.052   0.965   0.914   0.859   0.827   0.882   0.849   0.956   1.015   0.864   0.952   0.967   0.922   1.024   0.892   0.874
    81.00    0.883   0.976   1.105   1.026   1.021   1.078   0.949   0.926   0.910   0.978   1.009   0.908   0.766   0.911   0.958   0.958   0.936   0.962   0.945   0.881   0.917   0.917   0.921   0.990   1.111   1.104   0.962   0.910   0.862   0.937   0.814   0.887   0.953   1.063   0.942   0.912   0.897   0.895   0.915   0.931   0.904
    71.00    0.922   0.960   1.052   1.013   0.972   1.010   1.009   0.963   0.933   0.904   1.048   0.922   0.888   0.942   0.956   0.933   0.887   0.931   0.867   0.820   0.869   0.964   0.909   0.973   1.001   0.987   0.945   0.955   0.979   0.911   0.928   0.965   0.865   0.938   0.934   0.891   0.878   0.903   0.930   0.925   0.902
    61.00    0.893   1.008   0.984   0.882   0.983   1.091   1.052   0.945   0.866   0.930   0.987   0.873   0.910   0.950   0.859   0.799   0.865   0.966   0.854   0.904   0.970   1.040   1.006   0.933   0.955   0.963   0.905   0.972   1.083   1.091   1.010   0.879   0.911   0.934   0.955   0.923   1.015   1.021   0.954   1.024   0.939
    51.00    0.881   1.099   0.989   0.913   0.928   0.972   0.990   0.995   0.951   1.035   0.950   1.008   0.901   0.856   0.941   0.838   0.775   0.895   0.892   0.973   0.963   1.012   1.057   0.947   0.929   0.877   0.857   0.967   1.024   1.024   1.004   0.912   0.896   0.943   0.880   0.872   1.017   1.069   1.055   0.906   0.857
    41.00    0.971   0.966   1.014   0.888   0.965   0.908   0.985   0.996   0.995   1.086   0.913   0.924   0.842   0.903   0.920   0.943   0.777   0.916   0.966   0.865   0.983   1.003   0.978   1.050   0.988   0.941   0.871   0.950   0.966   0.996   0.909   0.837   0.867   0.990   0.895   0.861   1.035   1.037   1.069   0.934   0.978
    31.00    0.904   0.924   1.030   0.980   0.976   1.034   0.898   0.936   0.935   1.040   0.923   0.900   0.903   0.921   0.932   0.956   0.851   0.908   0.959   1.028   1.061   1.031   1.011   1.000   0.941   0.930   0.884   0.925   0.896   0.869   0.814   0.884   0.910   1.013   0.876   0.986   0.960   1.014   1.002   0.917   0.952
    21.00    0.949   0.805   1.058   0.952   0.925   0.907   0.912   0.926   0.913   0.981   1.010   0.911   0.901   0.878   0.990   0.946   0.875   0.923   1.059   0.920   1.085   1.110   1.088   0.917   0.985   1.012   0.983   0.901   0.839   0.837   0.833   0.842   0.954   0.917   0.990   0.926   0.933   0.896   0.965   0.930   0.896
    11.00    0.984   0.930   0.910   1.002   0.941   0.892   0.899   0.869   0.889   0.905   1.000   0.946   0.955   1.000   1.029   0.961   0.899   0.901   1.042   1.038   1.040   1.009   0.965   0.898   0.932   1.045   1.001   0.869   0.996   0.851   0.826   0.901   0.966   0.949   0.896   0.954   1.004   0.877   1.070   1.000   0.994
     1.00    0.974   0.887   0.924   0.997   0.818   0.911   0.821   0.890   0.860   0.910   0.929   0.979   1.003   0.984   0.940   0.900   0.897   0.950   0.958   1.066   0.988   0.986   0.932   0.922   0.987   0.992   1.036   0.936   0.909   0.916   0.880   0.849   0.905   0.900   0.949   0.978   0.998   1.046   1.098   1.043   1.010

   Mean standard deviation across all grid points:
      u component:    0.974 m/s
      v component:    0.958 m/s
      w component:    0.958 m/s


U-component (X) statistics from the interpolated hub point:

   Mean =  10.0066 m/s
   TI   =   7.6844 %


Processing complete.  9.0781 CPU seconds used.
