
This summary file was generated by TurbSim (from OpenFAST-v3.4.1) on 25-Nov-2024 at 22:18:24.


Runtime Options:

      2025  Random seed #1
         0  Random seed #2
         F  Output binary HH turbulence parameters?
         F  Output formatted turbulence parameters?
         F  Output AeroDyn HH files?
         T  Output AeroDyn FF files?
         F  Output BLADED FF files?
         F  Output tower data?
         F  Output HAWC FF files?
         F  Output formatted FF files?
         T  Output coherent turbulence time step file?
 0 -  NONE  IEC turbulence models scaled to exact specified standard deviation


Turbine/Model Specifications:

        31  Vertical grid-point matrix dimension
        41  Horizontal grid-point matrix dimension
     0.100  Time step [seconds]
   200.000  Analysis time [seconds]
   200.000  Usable output time [seconds]
   151.000  Hub height [m]
   300.000  Grid height [m]
   600.000  Grid width [m]
     0.000  Vertical flow angle [degrees]
     0.000  Horizontal flow angle [degrees]


Meteorological Boundary Conditions:

    IECVKM  IEC von Karman spectral model
         1  IEC standard: IEC 61400-1 Ed. 2: 1999
    10.000  Percent turbulence intensity, IEC 61400-1 Ed. 2: 1999
       NTM  IEC Normal Turbulence Model
       N/A  IEC Extreme Turbulence Model (ETM) "c" parameter [m/s]
       PL   Wind profile type
   150.000  Reference height [m]
    10.000  Reference wind speed [m/s]
       N/A  Jet height [m]
     0.100  Power law exponent
     0.030  Surface roughness length [m]


Non-IEC Meteorological Boundary Conditions:

       N/A  Site latitude [degrees]
       N/A  Gradient Richardson number
       N/A  Friction or shear velocity [m/s]
       N/A  Mixing layer depth [m]
       N/A  Mean hub u'w' Reynolds stress
       N/A  Mean hub u'v' Reynolds stress
       N/A  Mean hub v'w' Reynolds stress


Spatial Coherence Models:

       IEC  u-component coherence model
       IEC  v-component coherence model
       IEC  w-component coherence model
(   12.000, 0.659E-03)  u-component coherence parameters
(   12.000, 0.659E-03)  v-component coherence parameters
(   12.000, 0.659E-03)  w-component coherence parameters
       N/A  Coherence exponent


You have requested that the following file(s) be generated:

   ./TurbulentWind_20WT/FOWTs/Wind\InflowWind_High_WT1.bts (AeroDyn/TurbSim full-field wind file)


Turbulence Simulation Scaling Parameter Summary:

   Turbulence model used                            =  IEC von Karman
   Turbulence characteristic                        =  User-specified
   IEC standard                                     =  IEC 61400-1 Ed. 2: 1999
   Mean wind speed at hub height                    =   10.007 m/s
   Characteristic value of standard deviation       =    1.001 m/s
   Turbulence scale                                 =   21.000 m
   Isotropic integral scale                         =   73.500 m
   Characteristic value of hub turbulence intensity =   10.000%
   Gradient Richardson number                       =    0.000

   Wind profile type                                =  Power law
   Power law exponent                               =    0.100
   Mean shear across rotor disk                     =    0.016 (m/s)/m
   Assumed rotor diameter                           =  300.000 m
   Surface roughness length                         =    0.030 m

   Nyquist frequency of turbulent wind field        =    5.000 Hz

   Number of time steps in the FFT                  =     2600
   Number of time steps output                      =     2600
   Number of points simulated                       =     1271


Mean Flow Angles:

   Vertical   =   0.0 degrees
   Horizontal =   0.0 degrees

Mean Wind Speed Profile:

   Height    Wind Speed   Horizontal Angle  Vertical Angle  U-comp (X)   V-comp (Y)   W-comp (Z)
     (m)        (m/s)         (degrees)       (degrees)       (m/s)        (m/s)        (m/s)   
   ------    ----------   ----------------  --------------  ----------   ----------   ----------
    301.0       10.72            0.00            0.00         10.72         0.00         0.00
    291.0       10.69            0.00            0.00         10.69         0.00         0.00
    281.0       10.65            0.00            0.00         10.65         0.00         0.00
    271.0       10.61            0.00            0.00         10.61         0.00         0.00
    261.0       10.57            0.00            0.00         10.57         0.00         0.00
    251.0       10.53            0.00            0.00         10.53         0.00         0.00
    241.0       10.49            0.00            0.00         10.49         0.00         0.00
    231.0       10.44            0.00            0.00         10.44         0.00         0.00
    221.0       10.40            0.00            0.00         10.40         0.00         0.00
    211.0       10.35            0.00            0.00         10.35         0.00         0.00
    201.0       10.30            0.00            0.00         10.30         0.00         0.00
    191.0       10.24            0.00            0.00         10.24         0.00         0.00
    181.0       10.19            0.00            0.00         10.19         0.00         0.00
    171.0       10.13            0.00            0.00         10.13         0.00         0.00
    161.0       10.07            0.00            0.00         10.07         0.00         0.00
    151.0       10.01            0.00            0.00         10.01         0.00         0.00
    141.0        9.94            0.00            0.00          9.94         0.00         0.00
    131.0        9.87            0.00            0.00          9.87         0.00         0.00
    121.0        9.79            0.00            0.00          9.79         0.00         0.00
    111.0        9.70            0.00            0.00          9.70         0.00         0.00
    101.0        9.61            0.00            0.00          9.61         0.00         0.00
     91.0        9.51            0.00            0.00          9.51         0.00         0.00
     81.0        9.40            0.00            0.00          9.40         0.00         0.00
     71.0        9.28            0.00            0.00          9.28         0.00         0.00
     61.0        9.14            0.00            0.00          9.14         0.00         0.00
     51.0        8.98            0.00            0.00          8.98         0.00         0.00
     41.0        8.78            0.00            0.00          8.78         0.00         0.00
     31.0        8.54            0.00            0.00          8.54         0.00         0.00
     21.0        8.22            0.00            0.00          8.22         0.00         0.00
     11.0        7.70            0.00            0.00          7.70         0.00         0.00
      1.0        6.06            0.00            0.00          6.06         0.00         0.00


Harvested Random Seeds after Generation of the Random Numbers:

   1460093857 Harvested seed # 1
   1971657505 Harvested seed # 2


Hub-Height Simulated Turbulence Statistical Summary:

   Type of Wind        Min (m/s)   Mean (m/s)    Max (m/s)  Sigma (m/s)       TI (%)
   ----------------    ---------   ----------    ---------  -----------       ------
   Longitudinal (u)         6.76        10.01        12.95        1.126       11.255
   Lateral (v)             -2.70         0.00         2.82        0.955        9.547
   Vertical (w)            -2.61        -0.00         2.91        1.003       10.024
   U component              6.76        10.01        12.95        1.126       11.255
   V component             -2.70         0.00         2.82        0.955        9.547
   W component             -2.61        -0.00         2.91        1.003       10.024
   Horizontal (U&V)         6.77        10.05        13.21        1.134       11.281
   Total                    6.84        10.10        13.26        1.140       11.288

                       Min Reynolds     Mean Reynolds    Max Reynolds    Correlation
   Product             Stress (m/s)^2   Stress (m/s)^2   Stress (m/s)^2  Coefficient
   ----------------    --------------   --------------   --------------  -----------
   u'w'                     -4.177            -0.133             4.474        -0.118
   u'v'                     -3.635             0.167             7.740         0.155
   v'w'                     -3.457             0.082             5.349         0.085


   Friction Velocity (Ustar)  =      0.365 m/s
   Maximum Instantaneous TKE  =      8.363 (m/s)^2
   Maximum Instantaneous CTKE =      4.411 (m/s)^2


Grid Point Variance Summary:

   Y-coord -300.00 -285.00 -270.00 -255.00 -240.00 -225.00 -210.00 -195.00 -180.00 -165.00 -150.00 -135.00 -120.00 -105.00  -90.00  -75.00  -60.00  -45.00  -30.00  -15.00    0.00   15.00   30.00   45.00   60.00   75.00   90.00  105.00  120.00  135.00  150.00  165.00  180.00  195.00  210.00  225.00  240.00  255.00  270.00  285.00  300.00

   Height   Standard deviation at grid points for the u component:
   301.00    0.898   0.956   0.839   0.877   0.905   0.919   1.059   0.855   0.857   0.843   0.897   0.989   1.033   1.014   1.000   0.833   0.826   0.724   0.864   0.809   0.845   0.709   0.839   0.942   0.863   0.824   0.941   0.964   0.955   0.878   0.897   0.761   0.847   0.906   1.001   1.081   1.041   0.896   0.808   0.839   0.895
   291.00    0.960   0.859   0.861   0.939   1.039   1.094   0.987   0.905   0.827   0.829   0.923   1.047   0.936   0.882   0.806   0.830   0.792   0.793   0.794   0.898   0.862   0.715   0.843   0.796   0.874   0.810   0.924   0.883   0.918   0.852   0.864   0.858   0.822   0.989   0.917   1.022   1.131   0.891   0.787   0.836   0.889
   281.00    0.963   0.943   0.977   0.998   1.004   1.009   0.960   0.921   0.849   0.785   0.921   1.074   1.000   0.865   0.865   0.923   0.918   0.925   0.879   0.927   0.847   0.870   0.880   0.876   0.900   0.864   0.866   0.845   0.843   0.814   0.897   0.793   0.807   0.842   0.840   0.932   1.019   0.959   0.830   0.839   0.889
   271.00    1.075   1.012   0.918   0.859   0.850   0.909   0.890   0.839   0.935   0.797   0.996   1.022   0.942   0.875   0.883   0.909   0.824   0.841   0.802   0.824   0.836   0.840   0.738   0.810   0.924   0.950   0.830   0.799   0.759   0.915   0.845   0.803   0.821   0.806   0.837   0.934   0.921   0.920   0.857   1.034   0.964
   261.00    1.075   1.063   0.922   0.827   0.827   0.829   0.926   0.859   0.888   0.917   1.070   1.043   0.945   0.926   0.870   0.942   0.951   0.879   0.857   0.884   0.861   0.775   0.751   0.814   0.871   0.926   0.854   0.807   0.900   0.982   0.829   0.930   0.826   0.852   0.887   0.810   0.816   0.875   0.943   1.059   1.002
   251.00    1.188   1.153   0.901   0.998   0.873   0.861   0.856   0.831   0.894   0.976   0.970   1.050   0.866   0.837   0.841   0.827   0.921   0.955   0.927   0.801   0.776   0.816   0.839   0.852   0.816   0.812   0.856   0.780   0.912   0.960   0.970   0.985   0.897   0.856   0.831   0.806   0.780   0.929   0.932   1.040   1.085
   241.00    1.194   1.048   0.948   0.937   1.003   0.836   0.832   0.835   0.890   0.885   0.975   1.013   0.958   0.915   0.850   0.834   0.741   0.859   0.862   0.932   0.881   0.772   0.940   0.911   0.830   0.828   0.860   0.966   0.947   0.882   0.961   1.080   1.034   0.938   0.791   0.754   0.808   0.958   0.987   1.081   1.049
   231.00    1.128   1.111   0.916   0.812   0.901   0.972   0.931   0.942   0.886   0.973   1.033   1.047   0.992   0.857   0.857   0.920   0.796   0.841   0.928   0.906   0.832   0.910   0.951   0.974   0.884   0.892   0.893   0.957   0.946   0.978   1.055   1.066   1.058   0.938   0.792   0.776   0.859   1.008   0.936   1.009   0.953
   221.00    1.071   1.080   1.061   0.856   0.797   0.906   1.046   0.898   0.838   0.921   0.997   0.992   1.025   0.988   0.887   0.837   0.886   0.895   0.879   0.944   0.831   0.995   0.875   0.902   0.880   0.902   0.866   0.884   0.799   0.959   0.969   1.122   1.003   0.984   0.838   0.846   0.841   0.953   1.064   1.003   0.854
   211.00    0.985   0.998   1.059   0.945   0.886   1.072   1.029   0.923   0.903   0.920   0.810   0.951   0.887   0.917   0.867   0.868   0.913   0.983   0.921   1.006   0.906   0.995   0.992   0.929   0.823   0.898   0.830   0.854   0.865   0.979   0.828   1.054   1.046   0.948   0.834   0.858   0.954   0.958   1.088   0.932   0.837
   201.00    0.890   1.054   1.021   1.051   0.955   1.028   1.170   0.937   0.877   0.970   0.915   0.983   0.887   0.842   0.965   0.896   0.984   0.959   0.968   0.998   1.017   0.980   1.053   1.011   0.978   0.905   0.826   0.929   0.932   0.872   0.965   1.007   1.031   0.943   0.955   0.827   0.974   1.081   1.033   0.996   0.940
   191.00    0.993   0.981   0.908   1.028   0.979   1.070   1.094   0.918   0.917   0.890   1.000   0.980   0.960   0.976   0.915   0.891   0.956   1.051   0.964   1.000   0.964   0.984   1.143   0.998   0.971   0.905   0.860   0.873   0.934   0.983   0.874   0.886   0.934   0.943   0.928   0.845   0.998   1.036   0.904   0.906   0.987
   181.00    0.967   1.026   0.965   0.923   1.053   1.079   1.080   0.984   0.926   1.007   1.032   0.977   1.011   0.977   0.893   0.847   0.931   0.936   0.931   0.976   1.048   1.072   1.086   0.940   0.949   0.981   0.984   0.778   0.782   0.927   0.921   0.873   0.836   0.829   0.784   0.893   0.931   0.994   0.941   0.921   0.982
   171.00    1.060   0.995   1.024   0.974   0.971   1.010   1.059   0.925   0.909   1.010   0.975   0.985   0.983   0.920   0.956   0.912   0.908   0.954   1.001   1.064   1.116   1.098   1.081   1.041   0.943   0.946   0.979   0.807   0.813   0.873   0.819   0.976   0.756   0.863   0.944   0.878   0.919   0.875   0.960   0.825   0.797
   161.00    1.047   0.952   0.936   0.876   0.877   1.027   1.049   0.875   1.001   1.025   1.028   1.070   0.871   0.922   0.961   0.907   0.995   0.896   1.001   1.114   1.114   1.034   0.943   0.979   1.044   1.080   1.042   0.791   0.830   0.847   0.814   0.908   0.850   0.831   0.928   0.880   0.910   0.812   0.881   0.770   0.828
   151.00    1.007   1.145   0.934   0.903   0.982   0.994   1.007   1.006   1.057   0.894   0.918   1.031   0.980   0.878   0.935   0.851   0.917   1.004   1.079   1.047   1.126   1.094   1.080   0.959   1.094   1.056   0.947   0.905   0.845   0.907   0.928   0.889   0.907   0.850   0.853   0.999   0.889   0.863   0.847   0.819   0.935
   141.00    0.955   1.059   1.042   0.922   1.027   0.990   0.985   1.002   1.049   0.884   0.887   0.956   0.922   0.919   1.024   0.968   0.893   0.995   0.897   0.936   1.028   1.037   1.007   1.099   1.116   1.041   0.836   0.966   0.922   0.912   0.936   0.982   0.876   0.943   0.841   1.037   0.911   0.978   0.958   0.870   0.926
   131.00    1.011   0.930   0.936   0.965   0.812   0.947   1.013   0.959   0.998   0.923   0.954   0.952   0.855   0.972   1.072   0.923   1.088   0.985   0.961   0.949   0.998   1.032   1.068   1.042   0.955   0.937   0.870   0.919   0.925   0.874   0.972   1.006   1.054   0.931   0.943   0.950   0.927   0.909   0.980   0.869   0.900
   121.00    1.026   0.958   0.881   0.903   0.859   0.946   1.003   0.967   1.023   0.957   0.872   0.939   0.888   1.006   0.896   1.030   1.084   1.031   1.070   1.049   0.969   0.906   0.969   1.160   0.974   0.818   0.935   0.870   0.930   0.916   0.983   0.989   1.094   0.961   0.953   1.067   0.959   0.987   0.934   0.803   0.908
   111.00    1.144   1.028   0.886   0.869   0.920   0.891   0.960   0.894   0.983   1.007   0.910   0.998   0.930   0.963   1.017   0.986   1.058   1.032   0.998   1.045   0.860   0.821   0.930   1.105   1.006   0.881   1.034   0.915   0.955   0.912   1.029   0.967   1.014   1.064   0.964   0.998   0.980   0.935   0.885   0.838   0.965
   101.00    1.151   1.052   1.013   0.928   0.976   0.963   0.959   0.912   0.922   0.896   0.849   0.838   0.865   1.028   0.999   0.979   1.017   1.073   1.103   1.105   0.953   0.870   0.988   1.071   1.006   0.944   0.972   0.920   0.879   0.867   1.044   1.033   1.065   0.978   1.018   0.931   0.986   0.867   0.870   0.840   0.898
    91.00    1.161   1.089   0.963   1.034   1.065   0.834   0.950   0.954   0.817   0.841   0.776   0.831   0.911   1.001   1.016   1.001   0.947   1.011   1.044   1.014   0.944   0.938   1.058   0.999   0.977   0.888   0.979   0.850   0.815   0.887   1.073   1.112   0.936   0.900   0.922   0.917   0.871   0.855   0.810   0.816   0.864
    81.00    1.131   1.064   1.083   1.015   0.938   0.910   0.862   0.980   0.949   0.985   0.859   0.886   0.949   0.950   0.999   0.948   0.960   0.891   0.931   1.012   1.018   1.054   1.016   0.992   0.857   0.940   0.915   0.803   0.758   0.871   0.896   0.948   0.983   0.786   0.896   1.026   0.816   0.827   0.833   0.914   0.861
    71.00    1.029   1.083   1.113   1.066   0.896   0.827   0.848   0.905   0.869   0.982   0.961   0.906   0.899   0.919   0.925   0.914   0.863   0.933   0.902   1.096   0.946   0.997   0.917   0.965   1.009   1.116   0.928   0.931   0.856   0.799   0.859   0.985   0.947   0.881   0.861   0.885   0.821   0.823   0.883   0.947   1.029
    61.00    0.921   1.005   1.078   1.028   0.925   0.871   0.879   0.952   1.019   1.136   0.970   0.977   0.873   0.913   0.899   0.940   0.901   1.047   0.922   1.049   1.053   0.993   0.970   0.965   1.024   1.108   0.945   0.830   0.844   0.838   0.921   0.872   0.917   0.945   0.923   0.891   0.861   0.925   0.974   1.075   1.022
    51.00    1.005   1.048   1.056   0.849   0.966   0.960   0.931   0.985   1.085   1.038   1.045   0.973   1.007   0.903   0.894   0.994   1.004   0.870   0.970   1.040   1.075   1.092   1.042   0.913   0.966   0.999   0.963   0.833   0.788   0.837   0.870   0.816   0.946   0.928   0.881   0.800   0.805   0.907   1.001   1.089   0.976
    41.00    1.035   0.957   0.973   0.832   0.836   0.984   0.955   1.020   1.090   0.991   1.044   1.103   0.988   1.070   0.990   0.936   1.095   1.006   1.037   0.964   1.101   1.198   1.120   0.896   0.904   1.017   0.891   0.757   0.730   0.878   0.913   0.922   0.921   0.890   0.875   0.817   0.876   0.860   0.934   0.985   0.986
    31.00    1.024   0.983   1.042   0.928   0.861   0.868   1.003   0.961   1.135   0.962   1.059   1.069   0.946   1.013   0.989   0.974   1.161   1.157   0.981   1.089   1.120   1.109   1.171   1.003   0.892   0.892   0.923   0.874   0.855   0.925   0.901   0.942   0.875   0.784   0.843   0.715   0.799   0.867   0.934   0.910   0.898
    21.00    0.996   1.037   1.020   1.046   0.977   0.940   0.971   1.030   1.003   0.973   1.062   0.966   0.889   0.905   1.043   0.971   1.125   1.052   0.939   1.088   1.143   1.169   1.148   1.057   1.042   0.914   0.849   0.938   0.889   0.914   0.908   0.951   0.872   0.891   0.815   0.684   0.760   0.935   1.046   1.029   0.983
    11.00    0.823   0.989   0.979   0.873   0.899   0.926   0.941   1.019   0.905   0.984   1.014   1.020   0.940   1.008   1.022   1.017   1.069   1.092   0.921   1.055   1.120   1.141   1.026   1.099   1.055   0.984   0.993   0.859   0.788   0.818   0.843   0.974   0.822   0.797   0.845   0.777   0.874   0.971   1.039   0.970   1.006
     1.00    0.963   1.022   1.079   0.942   0.862   0.849   0.884   1.017   0.945   0.964   0.940   1.000   0.865   0.915   1.040   0.988   0.959   1.005   0.955   1.035   1.076   1.023   1.050   1.012   1.066   1.020   0.953   0.962   0.890   0.732   0.848   0.998   0.849   0.885   0.905   0.940   0.879   0.900   0.917   1.006   0.910

   Height   Standard deviation at grid points for the v component:
   301.00    0.969   1.007   0.938   1.032   0.928   0.987   1.169   1.030   0.967   0.925   1.018   1.009   1.014   1.064   1.021   0.988   1.058   1.105   1.009   1.082   1.143   1.018   1.054   0.931   0.991   0.969   0.858   0.938   0.998   0.926   0.971   1.000   1.033   1.116   1.001   1.038   1.080   1.097   0.979   1.102   0.956
   291.00    0.954   0.996   0.963   0.933   0.953   1.030   1.092   0.978   1.027   1.111   1.133   1.093   0.972   0.935   1.007   1.055   1.120   1.067   0.972   1.098   1.152   1.055   0.987   0.868   0.960   0.962   0.917   1.029   0.942   0.887   0.923   1.074   1.011   1.191   1.108   0.918   0.970   0.997   0.848   1.024   0.991
   281.00    0.926   0.982   0.920   0.922   0.986   0.986   1.046   1.132   0.997   1.085   1.027   1.035   0.934   0.993   1.095   1.071   1.079   1.199   1.004   1.026   1.034   0.965   0.951   0.950   0.922   0.931   1.004   1.007   0.961   0.899   0.881   0.939   0.953   1.080   0.969   0.960   0.969   0.964   0.888   1.057   1.019
   271.00    0.979   0.975   0.975   0.915   0.989   0.882   1.002   0.983   1.009   1.021   0.996   0.957   0.981   0.969   0.993   1.077   1.022   1.121   1.128   1.054   0.968   0.953   0.961   0.887   0.891   0.895   1.046   1.028   0.982   0.861   0.839   0.853   0.987   1.108   0.963   0.931   1.107   1.051   1.058   1.147   1.073
   261.00    0.945   0.903   0.881   0.873   0.980   0.933   0.977   0.988   1.108   1.062   1.066   1.006   0.935   0.926   1.038   0.942   1.007   1.103   1.060   1.004   0.849   0.984   0.882   0.914   0.955   1.066   1.030   0.982   0.992   0.894   0.833   0.892   1.021   1.054   1.075   1.047   1.198   1.091   1.089   1.134   1.002
   251.00    0.871   0.935   0.823   0.911   0.942   0.976   0.993   1.093   1.136   1.040   1.047   0.921   0.934   1.003   1.026   0.979   0.977   1.065   1.009   1.054   0.986   0.934   0.907   0.878   0.966   0.998   0.957   0.958   0.912   0.919   0.944   0.953   0.993   1.004   1.102   1.057   1.153   0.982   0.988   0.979   1.078
   241.00    0.903   0.947   0.905   0.959   0.849   0.939   0.986   1.095   1.039   1.018   1.095   1.029   0.955   0.943   1.015   0.956   1.001   0.988   0.976   1.048   0.987   0.889   0.920   0.845   1.004   0.974   0.914   0.899   0.930   0.881   1.020   1.040   1.042   1.188   1.189   1.185   1.093   1.063   1.050   1.133   0.924
   231.00    0.904   1.003   0.978   0.929   0.817   0.871   0.899   0.958   0.926   0.995   1.037   1.037   0.958   0.973   0.937   0.861   0.892   1.009   0.954   1.031   1.042   0.960   0.915   0.947   0.864   0.968   0.943   0.921   0.893   0.944   1.073   1.036   1.037   1.098   1.226   1.234   1.224   1.094   1.137   1.112   0.944
   221.00    0.885   0.993   0.886   0.997   0.871   0.976   0.913   0.898   0.983   0.885   0.964   1.040   1.000   0.924   0.830   0.913   0.912   0.989   1.012   0.980   1.078   1.035   0.827   0.909   0.915   0.884   0.952   0.837   0.848   1.063   1.100   1.126   1.027   1.153   1.131   1.196   1.159   1.059   1.170   1.174   0.948
   211.00    0.825   0.973   0.885   0.995   0.949   0.901   0.929   0.967   0.962   0.947   1.010   0.980   0.956   0.951   0.964   0.891   0.920   0.950   0.883   1.045   1.076   0.928   0.919   0.967   0.801   0.942   0.931   0.953   0.961   1.148   1.185   1.096   1.195   1.172   1.145   1.193   1.078   1.073   1.144   1.195   1.021
   201.00    0.947   0.918   0.879   0.944   0.975   0.963   0.922   0.916   0.935   0.963   1.039   0.947   0.967   0.859   0.903   0.858   0.970   0.907   0.954   1.025   1.062   0.989   0.973   0.944   0.954   0.921   0.977   1.047   0.993   1.070   1.071   1.169   1.159   1.126   1.144   1.175   1.106   1.027   1.111   1.096   0.996
   191.00    1.006   0.932   0.984   0.943   0.987   0.882   0.863   0.824   0.965   0.986   0.896   0.972   1.052   1.051   0.977   0.939   1.047   1.008   1.030   1.053   1.039   0.914   0.875   1.018   1.001   0.888   0.989   1.070   1.007   1.119   1.040   1.122   1.123   1.144   1.072   1.057   0.976   1.063   1.116   0.922   1.036
   181.00    0.896   0.987   0.963   0.863   0.901   0.909   0.857   0.906   1.023   0.959   0.879   0.932   0.985   1.072   0.868   0.957   0.965   1.003   0.985   0.922   0.912   0.887   0.921   0.922   0.969   0.905   0.930   1.001   1.131   1.090   1.062   1.028   1.117   1.088   1.072   1.079   0.953   1.142   1.104   1.061   1.064
   171.00    0.932   0.990   1.045   0.965   0.939   0.916   0.870   0.945   0.988   0.885   0.933   0.967   0.994   0.990   0.907   0.949   0.982   0.950   0.952   0.964   0.902   0.842   0.870   0.887   0.913   0.963   0.917   0.942   1.094   1.074   1.092   1.029   1.117   1.015   0.994   0.976   1.105   1.111   1.055   1.088   1.106
   161.00    0.992   0.979   1.044   0.966   0.901   0.887   0.846   0.877   1.011   0.970   0.933   0.935   0.958   1.032   1.004   1.025   0.933   0.894   0.969   1.004   0.850   0.955   0.887   0.847   0.882   1.017   1.099   1.110   1.186   1.164   1.076   1.060   1.141   0.977   1.019   1.009   1.000   1.099   1.128   1.095   1.222
   151.00    1.051   1.009   1.042   1.027   0.892   1.018   0.951   0.857   0.956   1.010   0.972   0.948   0.953   0.944   0.963   1.014   0.948   0.978   1.013   1.012   0.955   0.927   0.893   0.829   0.898   0.967   1.065   0.994   1.177   1.146   1.013   1.017   1.075   0.990   0.967   0.987   0.988   0.978   1.138   1.284   1.284
   141.00    1.042   0.983   0.895   0.944   0.924   0.910   0.911   0.884   0.937   0.970   1.046   0.977   0.902   0.885   0.978   0.984   1.032   1.095   1.022   1.027   1.014   0.960   0.919   0.929   0.891   0.905   1.026   1.073   1.185   1.191   0.985   1.018   1.031   1.018   0.982   1.050   0.935   1.066   1.045   1.253   1.196
   131.00    1.000   0.905   0.848   0.920   1.014   0.957   0.942   0.862   0.887   1.026   0.950   0.993   1.068   0.911   0.894   0.969   0.969   1.012   0.958   0.881   0.975   0.960   0.944   0.896   0.944   0.926   0.949   1.012   1.113   1.111   1.040   0.983   0.966   0.984   0.931   0.956   1.026   1.077   1.020   1.149   1.230
   121.00    0.998   0.963   0.912   0.876   0.993   0.994   0.932   0.962   0.858   1.043   0.979   0.986   1.022   1.010   0.967   1.002   1.028   0.911   0.877   0.812   0.961   0.977   0.924   0.952   0.920   0.882   0.929   1.044   1.132   1.052   1.018   0.979   0.930   0.986   1.021   0.882   0.922   1.007   0.973   1.092   1.215
   111.00    0.891   0.876   0.916   0.856   0.886   0.851   0.962   0.949   0.990   1.034   1.010   0.876   0.923   1.010   0.994   0.955   1.088   0.875   0.955   0.970   0.921   0.919   0.950   0.936   0.885   0.851   0.895   0.946   1.010   1.016   1.120   1.037   0.957   0.984   0.942   0.939   0.921   0.924   0.966   1.114   1.176
   101.00    0.815   0.820   0.964   0.908   0.932   0.928   0.966   0.935   0.948   0.987   0.949   0.789   0.908   0.958   0.958   0.968   1.013   0.921   0.954   0.915   0.934   0.931   0.865   0.927   0.923   0.922   0.849   0.887   0.892   0.967   1.004   0.918   0.990   0.972   0.885   0.942   0.907   1.009   1.039   1.003   0.966
    91.00    0.871   0.878   0.983   0.887   0.884   0.915   0.903   0.938   0.937   0.930   0.930   0.944   0.963   0.999   0.991   1.000   0.948   0.931   0.945   0.920   0.903   0.856   0.878   0.950   0.968   0.903   0.836   0.803   0.913   0.929   0.899   0.903   0.984   0.949   0.978   1.009   0.951   0.991   1.100   0.959   0.941
    81.00    0.890   0.968   0.906   0.987   0.940   0.880   0.890   0.942   0.938   0.898   0.882   0.847   0.887   0.952   1.039   1.112   0.995   0.977   1.003   0.961   0.897   0.852   0.907   0.942   0.922   0.879   0.879   0.798   0.820   0.899   0.873   0.875   0.882   0.892   0.954   1.001   0.877   0.843   1.040   0.960   0.972
    71.00    0.881   0.856   1.017   0.982   0.934   0.869   0.919   0.901   0.986   0.914   0.866   0.917   0.969   1.006   1.008   1.131   1.016   1.008   0.924   0.945   0.995   0.939   0.944   1.028   1.004   0.907   0.944   0.782   0.801   0.889   0.917   0.848   0.827   1.003   1.020   0.902   0.874   0.870   0.932   0.948   0.981
    61.00    0.905   1.010   0.963   0.963   0.934   0.848   0.898   0.996   0.968   0.972   0.920   0.869   0.916   1.008   0.921   1.069   1.023   1.066   0.896   0.950   0.961   0.850   1.011   1.027   0.992   0.915   0.875   0.835   0.931   1.084   0.944   0.903   0.926   1.009   1.003   0.956   0.904   0.928   0.899   1.003   0.963
    51.00    0.943   0.995   1.028   1.062   0.854   1.003   1.025   1.035   0.945   0.927   0.959   0.819   0.890   0.985   1.014   1.099   1.002   0.964   1.032   1.031   0.976   0.999   1.067   1.038   0.974   0.918   0.892   0.941   0.947   0.941   0.953   0.959   0.957   0.998   0.909   0.900   0.946   0.925   0.810   0.958   1.071
    41.00    0.961   1.036   1.116   1.024   0.981   0.968   0.965   0.963   0.967   0.962   0.914   0.884   0.859   0.993   0.964   1.087   1.022   1.102   0.987   1.023   1.043   1.048   1.147   1.121   0.977   0.935   1.008   0.976   0.983   0.975   0.949   0.925   0.928   0.877   0.857   0.893   0.864   0.962   0.948   0.895   1.036
    31.00    1.010   0.999   1.021   1.061   0.956   1.048   0.994   0.860   0.881   0.949   0.965   0.802   0.844   0.973   0.997   0.961   1.016   1.079   1.056   0.977   1.004   0.954   1.058   1.081   1.017   0.966   1.093   1.052   1.005   1.050   1.041   1.012   0.854   0.914   0.830   0.889   0.910   1.022   1.012   0.984   1.004
    21.00    0.946   0.956   0.841   0.882   0.974   1.039   1.037   0.985   0.937   0.917   0.872   0.925   0.868   0.877   0.902   0.934   0.961   1.007   1.083   1.005   1.042   0.960   1.091   0.988   1.134   1.009   1.061   1.129   1.015   0.944   1.169   1.079   0.921   0.863   0.892   0.834   0.911   0.993   1.059   1.088   0.927
    11.00    0.972   0.920   0.879   0.898   0.950   0.993   1.011   1.077   0.995   0.956   0.847   0.878   0.944   0.922   0.830   0.784   0.912   1.038   1.017   1.022   1.050   1.029   1.070   0.988   1.129   1.101   1.018   0.987   0.939   0.984   1.052   1.102   0.964   0.847   0.867   0.868   0.917   0.909   0.983   1.023   1.005
     1.00    0.974   0.988   0.866   0.900   0.901   1.031   1.029   1.014   0.903   0.956   0.858   1.001   1.031   0.929   0.843   0.867   0.897   0.993   0.993   1.013   1.040   0.965   0.997   1.052   1.060   1.002   0.925   0.924   0.952   1.001   1.022   1.068   1.032   0.874   0.943   0.886   0.857   0.961   0.994   1.008   0.951

   Height   Standard deviation at grid points for the w component:
   301.00    0.956   0.996   1.001   1.020   1.229   1.251   1.141   1.146   1.120   1.067   1.011   0.906   0.959   0.919   0.954   0.964   1.005   1.015   0.957   1.000   0.940   1.016   1.011   0.952   0.943   0.956   0.885   0.823   0.950   0.921   0.983   0.943   0.945   1.090   0.987   1.010   0.918   0.939   0.851   0.939   0.950
   291.00    0.914   0.974   0.869   1.022   1.147   1.143   1.183   1.076   1.051   1.040   1.002   0.896   0.909   0.962   0.957   0.887   0.931   1.040   0.946   0.928   0.890   0.988   1.052   0.972   0.986   0.915   0.911   0.882   0.934   1.040   0.906   0.943   1.029   1.048   0.971   0.963   1.022   0.949   0.893   0.885   0.905
   281.00    0.898   0.912   0.958   1.167   1.139   1.097   1.120   1.089   0.993   1.020   0.944   0.934   0.936   0.927   0.955   0.893   0.992   0.997   0.952   0.835   0.910   0.976   0.892   0.997   1.089   0.988   0.982   0.946   1.040   1.063   1.007   0.932   1.060   0.970   1.039   0.985   0.962   1.020   0.972   0.986   0.844
   271.00    1.013   0.887   0.957   1.179   1.057   1.005   1.062   0.982   0.862   0.979   0.947   0.903   0.895   0.886   0.887   0.996   1.057   0.914   0.916   0.964   0.968   0.934   0.919   0.992   0.998   0.981   1.051   1.000   0.930   0.962   0.979   0.949   1.012   1.159   1.012   0.956   0.960   0.908   0.921   0.964   0.951
   261.00    0.906   0.951   0.978   1.106   1.233   1.081   1.005   0.909   1.035   1.002   1.006   0.857   0.872   0.787   0.952   0.991   0.995   0.877   0.954   1.073   0.995   0.901   0.910   1.009   0.887   0.929   0.969   0.942   0.934   0.922   1.021   1.043   1.119   1.146   1.042   0.953   0.903   0.920   0.875   0.959   0.974
   251.00    0.983   1.004   0.974   1.102   1.192   1.112   0.945   0.954   1.055   1.045   0.979   0.933   0.939   0.867   1.028   1.090   0.888   1.025   1.015   1.001   0.939   0.922   1.018   0.996   1.041   0.991   0.968   0.840   0.937   0.948   0.996   0.961   1.178   1.108   1.022   1.138   1.050   1.010   0.847   0.865   0.965
   241.00    0.937   1.035   0.933   1.072   1.109   1.134   1.156   1.000   1.027   0.995   0.982   0.991   0.974   1.001   0.991   1.088   0.978   1.065   1.019   0.932   1.066   1.017   1.025   0.998   0.953   0.960   0.983   0.891   0.945   1.024   0.853   0.929   1.117   1.206   1.100   1.172   1.087   0.897   0.813   0.840   0.930
   231.00    0.954   0.965   1.077   1.020   1.107   1.060   1.086   1.105   1.085   0.897   0.929   1.112   1.030   0.961   1.009   1.058   1.091   1.014   0.957   0.892   0.974   1.020   1.079   0.920   1.021   1.087   1.028   1.056   0.978   0.996   0.973   1.028   1.118   1.188   1.038   1.138   1.132   0.919   0.909   0.939   0.904
   221.00    0.901   0.815   0.985   1.039   1.013   0.998   0.952   1.036   1.011   1.005   1.020   1.040   1.042   0.977   1.137   1.139   1.067   0.989   0.911   0.928   0.980   0.953   1.001   0.956   0.949   1.025   1.007   0.983   0.998   0.948   0.973   1.057   1.017   1.007   1.025   1.073   1.019   0.870   0.879   0.900   0.846
   211.00    0.916   0.846   0.912   0.948   1.014   1.022   0.964   0.926   0.939   1.029   0.988   1.002   1.157   1.204   1.065   1.029   1.108   1.041   0.981   0.962   1.002   0.975   0.969   0.926   0.813   0.937   0.985   0.934   0.981   0.972   0.894   1.021   0.955   0.978   0.974   0.965   0.912   0.885   0.819   0.827   0.883
   201.00    0.953   0.872   0.893   0.979   1.001   1.012   1.057   0.955   0.960   1.039   0.956   0.950   1.067   1.101   1.037   1.114   1.088   0.974   1.098   1.080   1.065   0.971   0.941   0.922   0.914   0.938   1.020   0.923   0.981   0.944   0.939   0.985   0.977   0.959   0.987   0.934   0.871   0.986   0.845   0.885   0.883
   191.00    0.904   0.900   0.939   0.866   0.929   1.071   1.023   1.002   0.946   0.956   1.064   0.951   1.030   1.033   1.045   1.131   1.121   1.123   1.102   1.162   0.992   1.032   0.943   0.987   0.970   0.919   0.931   0.932   0.951   0.928   0.889   0.905   0.915   1.067   0.993   0.979   0.941   1.124   1.020   0.846   0.915
   181.00    0.848   0.870   0.966   0.851   0.866   0.949   0.969   1.009   1.033   1.018   1.120   0.998   1.067   0.981   1.056   1.173   1.133   1.134   1.193   1.194   1.111   0.946   0.908   1.003   0.915   1.064   0.988   0.958   0.854   0.899   0.909   0.941   0.989   1.131   0.974   0.954   0.902   1.006   1.021   0.931   0.974
   171.00    0.876   0.811   0.856   0.825   0.883   0.990   0.970   0.915   1.018   1.000   0.995   1.047   1.123   1.117   1.091   1.210   1.171   1.166   1.186   1.153   1.163   1.011   0.941   0.940   0.921   1.004   1.034   0.943   0.876   0.934   0.901   0.929   0.980   1.086   1.142   0.949   0.904   1.088   1.090   0.913   0.888
   161.00    0.874   0.776   0.869   0.921   0.928   0.909   0.825   0.931   0.912   1.018   1.038   1.030   1.026   1.021   1.037   1.088   1.181   1.079   1.056   1.001   1.030   0.960   0.864   0.818   0.822   1.031   1.006   0.933   0.914   0.958   0.901   1.008   0.886   1.011   1.071   0.942   0.904   1.079   1.036   0.872   0.934
   151.00    0.856   0.837   0.873   0.838   1.002   0.928   0.815   0.892   1.039   1.031   1.017   1.022   1.067   1.165   1.014   1.035   0.997   1.155   1.122   1.029   1.003   1.075   0.888   0.910   0.894   0.936   1.052   1.024   1.010   1.067   0.988   1.026   0.823   0.878   0.991   0.921   0.891   1.084   1.028   0.944   0.916
   141.00    0.923   0.941   0.848   0.967   1.017   0.942   0.868   0.891   0.974   1.108   1.053   0.938   1.079   1.132   1.167   0.985   0.968   1.128   1.021   1.029   1.029   0.977   0.983   0.872   0.893   0.877   1.059   1.019   0.991   0.978   0.982   1.041   0.862   0.890   0.910   0.860   0.887   0.958   0.980   0.958   1.107
   131.00    1.033   1.023   0.926   0.898   0.994   1.038   0.828   0.915   0.848   1.007   0.992   1.103   1.037   1.152   1.105   0.925   1.027   1.011   0.976   0.974   0.902   0.889   0.962   0.909   0.887   0.976   0.943   1.024   1.063   0.904   0.923   1.006   1.071   0.958   0.873   0.927   0.878   0.991   0.904   1.018   1.123
   121.00    1.025   0.993   0.946   0.838   0.945   0.950   0.900   0.878   0.913   0.921   0.999   1.150   1.168   0.992   1.216   1.026   1.051   0.971   1.064   1.039   0.964   0.933   0.994   0.910   0.925   0.972   0.998   1.000   1.019   0.832   0.978   1.083   1.022   0.949   0.933   0.949   1.098   0.985   0.898   0.996   1.077
   111.00    0.925   0.979   0.868   0.997   1.031   0.905   0.859   0.989   0.985   1.043   1.099   1.131   1.185   1.181   1.215   1.105   1.028   1.045   1.002   0.959   0.946   0.879   0.919   0.992   0.893   0.869   0.940   1.010   0.918   0.940   1.013   1.093   0.951   0.940   0.920   0.934   1.081   0.967   0.912   0.940   1.013
   101.00    0.956   0.901   0.908   1.006   1.091   0.919   0.928   0.963   0.996   0.992   0.957   1.048   1.115   1.262   1.171   1.189   1.117   1.017   0.970   0.915   0.979   0.917   0.907   1.007   0.845   0.871   0.996   1.031   1.011   1.007   1.012   1.076   1.000   0.947   0.979   0.889   1.017   1.088   0.948   0.842   0.924
    91.00    0.903   0.792   0.884   1.060   1.127   1.054   0.957   0.972   1.078   1.053   0.914   0.903   1.129   1.134   1.223   1.227   1.084   1.045   0.922   0.926   1.015   0.959   0.968   0.923   0.853   0.826   0.940   0.989   1.086   0.961   0.996   1.066   0.910   0.869   0.974   1.026   0.977   0.986   0.923   0.844   0.969
    81.00    0.939   0.962   0.936   0.940   1.126   0.927   0.993   1.061   1.035   1.009   1.000   1.053   1.147   1.132   1.182   1.101   1.037   1.024   1.010   1.005   0.935   0.957   0.991   0.877   0.887   0.911   0.890   1.048   1.049   1.044   1.000   0.995   0.903   0.857   0.929   0.981   0.999   1.006   1.010   0.937   0.962
    71.00    0.932   0.944   0.908   0.939   1.099   0.965   0.969   1.039   1.002   1.037   1.043   1.049   1.113   1.080   1.117   1.113   1.043   1.069   0.905   0.958   0.944   1.077   0.998   0.918   0.990   1.036   1.074   1.106   1.077   1.036   1.004   0.923   0.911   0.907   0.860   0.990   1.014   0.998   0.961   0.837   0.906
    61.00    0.902   0.927   0.881   0.983   1.016   1.027   1.012   1.093   1.009   0.985   1.049   1.069   0.964   1.096   1.067   1.161   1.099   0.998   1.038   0.856   1.012   1.069   1.039   0.941   0.958   1.021   1.018   1.057   1.038   1.063   1.092   0.965   0.848   0.876   0.855   0.968   0.967   0.942   0.875   0.894   0.843
    51.00    0.807   0.900   0.861   0.941   0.926   0.941   0.984   1.073   0.900   1.004   0.987   0.928   1.058   1.098   1.102   1.028   1.055   1.168   1.009   0.882   0.946   0.848   1.004   0.980   0.938   1.022   1.063   1.026   1.021   1.071   0.984   1.014   0.913   0.898   0.830   0.898   0.983   0.930   0.873   0.885   0.862
    41.00    0.874   0.877   0.819   0.981   0.938   0.988   0.999   0.942   0.847   0.960   0.975   0.913   0.893   1.052   1.018   1.107   1.073   1.102   1.061   0.904   0.961   0.838   0.936   0.888   1.061   1.048   1.010   0.954   1.018   1.083   1.052   1.085   0.952   0.914   0.903   0.949   0.976   0.956   0.886   0.794   0.837
    31.00    0.805   0.926   0.848   0.935   0.965   0.918   1.000   1.038   0.957   1.093   0.968   0.860   0.938   0.994   1.027   1.012   0.985   1.107   1.073   0.938   1.044   0.895   0.934   0.999   0.998   1.026   1.040   1.095   1.103   1.132   1.051   1.054   0.996   1.010   0.952   0.930   0.887   0.883   0.976   0.800   0.857
    21.00    0.853   0.921   0.936   0.861   0.961   0.897   0.992   1.032   0.954   1.044   0.931   0.869   0.887   0.884   0.923   0.952   0.984   0.952   1.000   0.836   0.988   0.910   0.885   1.013   1.021   0.871   0.895   1.048   1.114   1.105   1.036   1.033   0.975   0.966   0.878   0.892   0.982   0.968   1.006   0.988   0.980
    11.00    0.906   1.049   0.963   0.950   0.966   1.081   1.011   1.061   0.962   0.932   1.007   0.910   0.934   0.972   0.854   0.842   0.905   0.927   0.932   0.944   1.044   0.916   0.904   0.962   0.945   0.963   0.995   1.148   1.010   1.040   0.847   0.916   0.972   0.946   0.942   0.867   0.979   0.944   1.027   0.964   0.950
     1.00    0.974   0.999   1.034   1.069   0.964   1.071   1.017   1.029   1.032   0.984   0.910   0.967   0.947   1.060   0.971   0.900   0.898   0.863   0.934   0.937   0.861   0.955   0.933   0.982   0.954   0.942   0.971   1.059   1.066   1.125   0.894   0.873   0.909   0.885   0.925   0.908   0.981   0.963   0.981   0.981   1.000

   Mean standard deviation across all grid points:
      u component:    0.941 m/s
      v component:    0.979 m/s
      w component:    0.982 m/s


U-component (X) statistics from the interpolated hub point:

   Mean =  10.0066 m/s
   TI   =  11.2550 %


Processing complete.  10.281 CPU seconds used.
