
This summary file was generated by TurbSim (from OpenFAST-v3.4.1) on 25-Nov-2024 at 22:26:47.


Runtime Options:

      2038  Random seed #1
         0  Random seed #2
         F  Output binary HH turbulence parameters?
         F  Output formatted turbulence parameters?
         F  Output AeroDyn HH files?
         T  Output AeroDyn FF files?
         F  Output BLADED FF files?
         F  Output tower data?
         F  Output HAWC FF files?
         F  Output formatted FF files?
         T  Output coherent turbulence time step file?
 0 -  NONE  IEC turbulence models scaled to exact specified standard deviation


Turbine/Model Specifications:

        31  Vertical grid-point matrix dimension
        41  Horizontal grid-point matrix dimension
     0.100  Time step [seconds]
   200.000  Analysis time [seconds]
   200.000  Usable output time [seconds]
   151.000  Hub height [m]
   300.000  Grid height [m]
   600.000  Grid width [m]
     0.000  Vertical flow angle [degrees]
     0.000  Horizontal flow angle [degrees]


Meteorological Boundary Conditions:

    IECVKM  IEC von Karman spectral model
         1  IEC standard: IEC 61400-1 Ed. 2: 1999
    10.000  Percent turbulence intensity, IEC 61400-1 Ed. 2: 1999
       NTM  IEC Normal Turbulence Model
       N/A  IEC Extreme Turbulence Model (ETM) "c" parameter [m/s]
       PL   Wind profile type
   150.000  Reference height [m]
    10.000  Reference wind speed [m/s]
       N/A  Jet height [m]
     0.100  Power law exponent
     0.030  Surface roughness length [m]


Non-IEC Meteorological Boundary Conditions:

       N/A  Site latitude [degrees]
       N/A  Gradient Richardson number
       N/A  Friction or shear velocity [m/s]
       N/A  Mixing layer depth [m]
       N/A  Mean hub u'w' Reynolds stress
       N/A  Mean hub u'v' Reynolds stress
       N/A  Mean hub v'w' Reynolds stress


Spatial Coherence Models:

       IEC  u-component coherence model
       IEC  v-component coherence model
       IEC  w-component coherence model
(   12.000, 0.659E-03)  u-component coherence parameters
(   12.000, 0.659E-03)  v-component coherence parameters
(   12.000, 0.659E-03)  w-component coherence parameters
       N/A  Coherence exponent


You have requested that the following file(s) be generated:

   ./TurbulentWind_20WT/FOWTs/Wind\InflowWind_High_WT14.bts (AeroDyn/TurbSim full-field wind file)


Turbulence Simulation Scaling Parameter Summary:

   Turbulence model used                            =  IEC von Karman
   Turbulence characteristic                        =  User-specified
   IEC standard                                     =  IEC 61400-1 Ed. 2: 1999
   Mean wind speed at hub height                    =   10.007 m/s
   Characteristic value of standard deviation       =    1.001 m/s
   Turbulence scale                                 =   21.000 m
   Isotropic integral scale                         =   73.500 m
   Characteristic value of hub turbulence intensity =   10.000%
   Gradient Richardson number                       =    0.000

   Wind profile type                                =  Power law
   Power law exponent                               =    0.100
   Mean shear across rotor disk                     =    0.016 (m/s)/m
   Assumed rotor diameter                           =  300.000 m
   Surface roughness length                         =    0.030 m

   Nyquist frequency of turbulent wind field        =    5.000 Hz

   Number of time steps in the FFT                  =     2600
   Number of time steps output                      =     2600
   Number of points simulated                       =     1271


Mean Flow Angles:

   Vertical   =   0.0 degrees
   Horizontal =   0.0 degrees

Mean Wind Speed Profile:

   Height    Wind Speed   Horizontal Angle  Vertical Angle  U-comp (X)   V-comp (Y)   W-comp (Z)
     (m)        (m/s)         (degrees)       (degrees)       (m/s)        (m/s)        (m/s)   
   ------    ----------   ----------------  --------------  ----------   ----------   ----------
    301.0       10.72            0.00            0.00         10.72         0.00         0.00
    291.0       10.69            0.00            0.00         10.69         0.00         0.00
    281.0       10.65            0.00            0.00         10.65         0.00         0.00
    271.0       10.61            0.00            0.00         10.61         0.00         0.00
    261.0       10.57            0.00            0.00         10.57         0.00         0.00
    251.0       10.53            0.00            0.00         10.53         0.00         0.00
    241.0       10.49            0.00            0.00         10.49         0.00         0.00
    231.0       10.44            0.00            0.00         10.44         0.00         0.00
    221.0       10.40            0.00            0.00         10.40         0.00         0.00
    211.0       10.35            0.00            0.00         10.35         0.00         0.00
    201.0       10.30            0.00            0.00         10.30         0.00         0.00
    191.0       10.24            0.00            0.00         10.24         0.00         0.00
    181.0       10.19            0.00            0.00         10.19         0.00         0.00
    171.0       10.13            0.00            0.00         10.13         0.00         0.00
    161.0       10.07            0.00            0.00         10.07         0.00         0.00
    151.0       10.01            0.00            0.00         10.01         0.00         0.00
    141.0        9.94            0.00            0.00          9.94         0.00         0.00
    131.0        9.87            0.00            0.00          9.87         0.00         0.00
    121.0        9.79            0.00            0.00          9.79         0.00         0.00
    111.0        9.70            0.00            0.00          9.70         0.00         0.00
    101.0        9.61            0.00            0.00          9.61         0.00         0.00
     91.0        9.51            0.00            0.00          9.51         0.00         0.00
     81.0        9.40            0.00            0.00          9.40         0.00         0.00
     71.0        9.28            0.00            0.00          9.28         0.00         0.00
     61.0        9.14            0.00            0.00          9.14         0.00         0.00
     51.0        8.98            0.00            0.00          8.98         0.00         0.00
     41.0        8.78            0.00            0.00          8.78         0.00         0.00
     31.0        8.54            0.00            0.00          8.54         0.00         0.00
     21.0        8.22            0.00            0.00          8.22         0.00         0.00
     11.0        7.70            0.00            0.00          7.70         0.00         0.00
      1.0        6.06            0.00            0.00          6.06         0.00         0.00


Harvested Random Seeds after Generation of the Random Numbers:

    825752473 Harvested seed # 1
   1971657505 Harvested seed # 2


Hub-Height Simulated Turbulence Statistical Summary:

   Type of Wind        Min (m/s)   Mean (m/s)    Max (m/s)  Sigma (m/s)       TI (%)
   ----------------    ---------   ----------    ---------  -----------       ------
   Longitudinal (u)         7.44        10.01        12.95        0.911        9.107
   Lateral (v)             -2.80        -0.00         2.69        1.009       10.085
   Vertical (w)            -2.84        -0.00         2.61        0.878        8.769
   U component              7.44        10.01        12.95        0.911        9.107
   V component             -2.80        -0.00         2.69        1.009       10.085
   W component             -2.84        -0.00         2.61        0.878        8.769
   Horizontal (U&V)         7.51        10.06        12.95        0.906        9.004
   Total                    7.52        10.10        13.01        0.912        9.030

                       Min Reynolds     Mean Reynolds    Max Reynolds    Correlation
   Product             Stress (m/s)^2   Stress (m/s)^2   Stress (m/s)^2  Coefficient
   ----------------    --------------   --------------   --------------  -----------
   u'w'                     -3.207            -0.006             4.447        -0.007
   u'v'                     -5.018            -0.018             3.570        -0.020
   v'w'                     -4.033            -0.067             3.887        -0.076


   Friction Velocity (Ustar)  =      0.077 m/s
   Maximum Instantaneous TKE  =      5.254 (m/s)^2
   Maximum Instantaneous CTKE =      2.862 (m/s)^2


Grid Point Variance Summary:

   Y-coord -300.00 -285.00 -270.00 -255.00 -240.00 -225.00 -210.00 -195.00 -180.00 -165.00 -150.00 -135.00 -120.00 -105.00  -90.00  -75.00  -60.00  -45.00  -30.00  -15.00    0.00   15.00   30.00   45.00   60.00   75.00   90.00  105.00  120.00  135.00  150.00  165.00  180.00  195.00  210.00  225.00  240.00  255.00  270.00  285.00  300.00

   Height   Standard deviation at grid points for the u component:
   301.00    1.033   0.894   0.844   0.830   0.818   0.821   0.940   0.886   1.013   1.145   1.146   1.119   1.064   1.198   1.092   0.882   0.845   0.902   0.929   0.865   0.918   0.869   0.808   0.909   0.979   0.981   1.114   1.038   1.099   0.978   1.089   1.152   1.157   0.970   1.126   1.125   0.999   1.079   1.008   0.980   1.051
   291.00    0.882   0.810   0.812   0.848   0.883   0.924   0.876   0.821   0.928   1.062   1.131   1.083   1.204   1.182   1.060   1.001   0.923   0.971   0.924   0.920   0.838   0.848   0.901   0.970   0.939   1.122   1.044   1.007   1.041   0.921   1.084   1.085   0.974   1.015   1.085   1.085   0.953   0.999   0.886   1.005   1.025
   281.00    0.896   0.762   0.830   0.746   0.879   0.840   0.907   0.756   0.881   1.091   1.109   1.115   1.220   1.171   1.065   0.905   0.897   1.094   0.863   0.968   1.004   0.903   0.895   0.927   0.961   1.101   1.102   1.110   1.003   1.178   1.156   1.032   1.017   0.970   0.989   0.910   0.846   0.815   0.957   0.836   0.960
   271.00    0.851   0.809   0.801   0.853   0.934   0.808   0.868   0.930   0.992   1.026   1.066   1.048   1.107   0.967   1.028   0.958   0.965   0.983   0.979   0.943   1.025   0.988   0.899   1.006   0.923   1.036   0.995   1.164   1.171   1.231   1.065   0.943   0.885   0.910   0.837   0.800   0.865   0.990   0.961   1.011   0.992
   261.00    0.822   0.804   0.885   0.917   0.961   0.781   0.870   0.954   0.936   0.949   1.068   1.015   1.040   0.995   0.999   1.116   1.025   1.036   0.921   0.924   0.931   0.941   0.865   0.934   0.880   0.957   0.973   1.155   1.163   1.115   1.155   0.960   0.919   0.845   0.802   0.887   0.874   0.977   0.871   1.042   1.018
   251.00    0.793   0.784   0.977   0.925   0.864   0.795   0.931   1.039   1.020   0.925   1.035   1.012   0.983   1.065   1.125   1.100   1.009   0.981   0.857   0.883   0.885   0.947   0.924   0.891   0.827   0.914   1.050   1.071   1.142   1.052   1.119   0.961   0.927   0.982   0.902   0.799   0.899   0.978   1.019   1.018   1.069
   241.00    0.998   0.949   0.943   0.996   0.825   0.908   1.022   0.995   0.986   0.899   0.954   1.070   0.993   1.083   1.043   1.193   1.000   1.016   0.998   0.886   0.929   0.944   0.868   0.887   0.921   0.962   1.050   1.065   1.087   1.089   1.055   0.961   0.924   0.844   0.877   0.822   0.829   0.988   1.035   0.998   1.008
   231.00    0.990   0.881   0.989   1.001   0.972   0.925   0.886   0.899   0.940   0.913   0.987   1.088   1.117   0.954   1.064   1.117   0.975   1.019   0.937   0.785   0.964   0.909   0.911   0.875   1.003   0.998   1.074   0.974   1.020   1.030   1.030   0.991   0.912   0.859   0.783   0.830   0.818   0.908   1.021   1.048   1.083
   221.00    0.955   0.998   0.955   1.045   0.919   0.858   0.939   0.955   0.963   0.963   0.970   1.113   1.055   0.901   0.883   0.979   0.984   0.996   0.973   0.897   1.054   0.905   0.888   0.944   1.080   1.141   1.255   1.176   1.098   1.018   1.006   0.978   0.893   0.865   0.788   0.829   0.873   0.938   0.983   1.095   1.087
   211.00    0.886   0.856   0.994   0.972   0.934   0.891   0.823   1.043   0.986   0.969   1.006   1.049   0.924   1.038   0.922   0.984   1.006   0.966   0.864   0.962   0.965   0.825   0.870   0.990   1.061   1.235   1.279   1.124   1.072   1.074   0.938   0.895   0.854   0.868   0.766   0.808   0.954   0.959   0.923   1.050   1.040
   201.00    0.947   0.759   0.987   0.905   0.810   0.884   0.936   1.058   0.908   0.862   0.876   1.004   0.971   1.033   0.962   0.968   0.955   1.014   0.906   0.815   0.874   0.894   0.864   0.948   1.178   1.294   1.126   1.272   1.136   0.968   0.994   0.860   0.855   0.919   0.833   0.807   0.878   0.943   1.042   1.000   1.161
   191.00    0.879   0.861   0.931   0.863   0.980   0.950   0.969   1.019   0.920   0.963   1.026   0.909   0.918   1.006   1.051   0.990   0.923   0.994   0.884   0.845   0.963   0.843   0.966   0.876   1.093   1.188   1.195   1.204   1.159   0.987   0.835   0.954   0.814   0.907   0.892   0.776   0.835   0.897   1.006   1.006   1.076
   181.00    0.965   0.976   1.106   0.968   1.036   0.970   0.928   0.930   0.958   0.918   0.994   0.879   1.031   0.981   1.063   0.911   0.881   0.941   0.765   0.910   1.041   0.872   0.781   0.897   1.092   1.174   1.233   1.165   1.023   0.939   0.831   0.873   0.909   1.014   0.920   0.811   0.887   0.909   0.953   1.012   1.064
   171.00    0.897   1.032   0.972   1.024   1.005   1.067   1.039   1.055   0.980   0.885   0.910   0.995   1.064   0.949   1.029   0.864   0.917   0.899   0.867   1.030   1.044   0.839   0.787   0.830   0.995   1.166   1.209   1.179   1.070   1.008   0.885   0.930   0.951   0.930   0.932   0.832   0.819   0.915   1.062   0.982   0.986
   161.00    0.894   0.936   0.925   0.875   1.043   1.049   1.012   0.884   0.951   0.877   0.851   0.928   1.062   1.004   0.974   0.908   0.815   0.926   0.987   0.949   0.891   0.834   0.919   0.858   0.944   1.040   1.082   1.082   1.036   1.074   0.992   0.943   0.892   0.908   0.939   0.844   0.818   0.876   0.996   0.894   0.879
   151.00    0.905   0.941   0.992   1.010   0.959   1.041   1.067   0.970   1.061   1.027   1.003   0.878   0.965   1.050   1.109   0.996   0.949   0.996   1.026   0.876   0.911   0.805   0.897   0.903   0.945   0.947   1.054   0.972   1.026   1.175   0.955   1.114   0.873   0.953   0.912   0.856   0.872   0.863   0.964   0.899   0.904
   141.00    1.069   0.985   0.975   1.102   1.050   0.961   1.002   1.012   1.023   0.838   1.061   1.072   1.118   1.053   1.092   1.133   1.060   1.150   1.085   0.930   0.905   0.769   0.849   1.037   0.922   1.003   1.091   1.090   1.109   1.294   1.081   1.005   1.024   0.963   0.958   0.949   0.964   0.977   0.901   0.943   0.861
   131.00    1.072   1.057   0.883   1.065   1.012   0.953   0.943   0.913   0.930   0.808   1.070   1.041   1.155   1.049   1.053   1.115   1.152   1.140   0.959   0.901   0.939   0.880   1.014   1.109   0.986   1.065   1.143   1.164   1.065   1.147   1.172   1.003   0.877   0.966   1.102   1.080   0.904   0.955   0.879   1.004   0.996
   121.00    1.086   1.009   0.987   0.924   1.003   0.989   0.985   0.842   0.860   0.912   1.079   1.002   1.106   1.160   0.957   1.028   1.038   1.106   1.017   0.950   0.849   0.853   1.009   1.036   0.998   1.098   1.136   1.147   0.993   1.127   1.085   1.014   0.991   0.941   1.049   1.063   1.039   0.903   0.836   1.023   1.177
   111.00    1.158   1.082   1.055   0.897   0.911   0.950   1.008   0.902   0.845   0.867   0.952   0.925   0.995   1.111   1.022   0.980   1.160   1.079   1.038   0.937   0.874   0.864   1.010   1.073   0.876   0.948   1.120   1.068   1.124   1.034   1.053   1.105   0.934   1.124   1.139   1.093   1.090   0.981   0.973   1.006   1.044
   101.00    1.071   1.048   1.128   0.965   1.001   0.815   0.917   0.949   0.977   0.907   1.014   0.983   0.929   0.999   0.983   0.977   1.052   0.982   0.873   0.912   0.814   0.986   1.036   0.975   1.065   1.076   1.158   1.108   1.116   0.993   1.012   1.092   0.934   1.116   1.255   1.131   1.108   1.005   0.814   0.943   0.988
    91.00    1.048   1.156   1.029   1.052   0.878   0.940   0.935   0.975   0.928   0.972   0.955   0.905   0.904   0.945   0.961   0.926   0.963   0.906   0.885   0.932   0.844   1.042   1.065   1.055   1.028   1.086   1.180   1.255   1.044   1.067   1.109   1.111   1.113   1.090   1.207   1.220   1.118   0.939   0.902   0.981   1.043
    81.00    1.074   1.093   1.016   0.884   0.823   0.900   0.936   0.906   0.853   0.993   0.981   1.063   0.911   1.080   1.007   0.945   0.826   0.879   0.843   0.956   0.999   1.054   0.990   0.960   1.045   1.075   1.148   1.190   1.238   1.236   1.142   1.075   1.179   1.194   1.169   1.067   1.088   0.970   0.956   1.043   0.898
    71.00    0.923   1.070   0.994   0.877   0.886   0.917   0.978   0.890   0.845   1.032   1.008   1.067   0.942   0.960   1.005   0.898   0.763   0.850   0.914   1.073   1.032   0.997   0.918   0.898   1.010   1.051   1.179   1.164   1.180   1.143   1.231   1.152   1.156   1.114   1.128   1.207   1.151   1.001   1.019   1.092   1.061
    61.00    1.051   0.949   0.906   0.934   0.969   0.940   0.969   0.968   0.926   1.031   0.898   1.044   1.027   0.865   0.930   0.923   0.850   0.897   0.928   1.019   1.008   1.133   0.928   0.963   1.052   0.992   1.098   1.134   1.089   1.214   1.237   1.244   1.169   1.042   1.110   1.119   1.149   1.055   1.057   1.078   1.191
    51.00    1.017   0.965   0.982   0.929   1.024   0.874   0.833   0.931   0.991   1.027   0.930   1.036   0.976   0.893   0.939   0.954   0.884   0.905   0.945   1.036   1.116   1.070   1.148   0.994   1.007   0.902   1.100   1.077   1.146   1.221   1.329   1.341   1.144   1.110   1.105   1.165   1.213   1.036   1.174   1.098   1.146
    41.00    1.068   0.990   0.941   0.898   0.958   1.006   0.862   0.900   0.949   0.968   0.945   0.899   0.827   0.910   1.010   0.881   0.882   0.962   0.836   0.987   0.953   0.966   1.090   1.021   0.981   1.004   1.090   1.065   1.144   1.168   1.234   1.295   1.262   1.060   1.007   1.198   1.158   0.993   1.062   1.115   1.202
    31.00    1.033   0.973   1.104   1.025   0.983   0.875   0.935   0.919   0.938   0.987   0.952   0.932   0.873   0.839   1.011   0.905   0.863   0.755   0.942   0.967   0.912   0.942   0.988   0.897   1.055   0.983   0.978   0.984   1.021   1.091   1.174   1.132   1.175   1.257   1.107   1.117   1.079   0.975   1.043   1.126   1.159
    21.00    0.944   1.090   1.134   1.018   1.135   0.963   0.896   0.972   0.904   0.953   0.900   0.937   0.867   0.901   0.881   0.777   0.846   0.954   0.919   0.989   0.996   0.971   0.942   1.051   1.116   1.127   0.883   0.842   0.897   0.994   1.113   1.171   1.048   1.151   1.020   1.129   1.071   1.100   1.017   1.058   1.027
    11.00    1.009   1.019   1.127   1.008   1.069   0.969   0.886   0.911   0.894   0.838   0.848   0.807   0.848   0.894   0.825   0.811   0.833   0.801   0.838   1.031   1.047   0.964   0.949   1.048   1.087   1.157   1.046   0.850   0.954   0.861   1.072   1.167   1.005   0.997   1.042   1.127   1.084   1.057   1.013   1.015   1.060
     1.00    0.963   1.030   0.972   1.017   1.002   0.948   0.838   0.885   0.935   0.818   0.876   0.897   0.853   0.903   0.932   0.944   0.884   0.921   0.940   1.031   0.957   0.861   0.914   1.029   1.113   1.135   0.932   0.938   0.914   0.906   0.953   1.067   1.167   0.897   1.007   1.034   1.089   0.970   1.001   1.066   0.939

   Height   Standard deviation at grid points for the v component:
   301.00    0.940   0.965   1.050   0.964   1.013   1.076   1.039   1.050   1.054   1.002   1.035   0.999   0.952   0.863   0.814   0.925   0.838   0.828   0.917   0.995   0.993   1.039   0.996   1.031   0.970   0.868   0.967   0.968   1.049   1.075   0.935   0.929   1.078   1.168   0.935   0.915   0.989   0.939   0.976   1.016   1.028
   291.00    0.982   1.034   1.065   0.954   1.080   1.085   1.114   1.053   1.115   1.007   0.991   0.931   0.863   0.890   0.902   0.929   0.935   0.859   0.951   0.905   1.017   1.039   1.016   0.951   1.034   0.995   0.994   0.988   1.053   1.029   0.915   1.066   0.989   1.129   1.035   1.008   1.040   0.934   0.924   1.035   1.068
   281.00    1.048   1.065   1.038   1.013   1.129   1.103   1.006   1.045   1.040   0.997   0.977   0.862   0.831   0.893   0.951   0.979   0.969   0.969   0.988   0.951   0.978   1.034   0.986   1.008   1.100   1.140   1.045   1.008   1.012   0.985   0.899   1.085   1.099   1.084   0.982   0.997   1.016   0.884   0.924   0.980   1.048
   271.00    0.981   1.047   1.071   1.082   1.090   1.096   1.031   1.008   0.982   0.816   0.905   0.832   0.870   0.864   0.892   0.896   1.031   1.073   1.014   0.975   1.041   1.052   0.942   1.008   1.123   1.078   1.028   1.041   1.005   0.941   0.906   0.959   0.963   0.977   1.066   0.951   1.018   0.965   0.883   0.927   0.977
   261.00    1.027   1.091   1.164   1.172   1.010   1.044   1.039   0.981   0.927   0.880   0.873   0.930   0.881   0.915   0.889   0.921   1.104   1.036   0.982   0.955   0.998   1.027   1.017   1.038   1.142   1.154   1.011   1.037   0.964   1.020   0.900   0.945   0.942   0.944   1.111   0.967   1.011   0.942   0.903   0.977   0.943
   251.00    0.975   1.045   1.047   1.004   1.013   1.020   0.926   0.991   0.813   0.906   0.853   0.894   0.862   0.860   0.843   0.932   1.070   1.113   0.987   0.930   0.968   1.027   0.920   1.027   1.027   0.985   1.008   1.023   0.839   0.874   1.006   1.127   0.979   0.987   1.081   1.060   0.894   0.921   0.913   0.964   0.899
   241.00    1.046   1.041   0.981   0.983   1.002   1.003   0.959   0.942   0.906   0.878   0.875   0.950   0.885   0.872   0.906   0.932   1.054   1.052   1.019   1.047   1.097   1.042   1.045   1.018   0.965   0.956   1.170   1.039   1.003   0.933   0.983   1.119   1.147   0.929   1.050   1.183   0.958   0.857   0.934   0.887   1.000
   231.00    0.999   0.971   1.041   0.962   0.970   0.997   0.843   0.960   0.916   0.965   0.944   0.941   0.838   0.910   1.071   0.895   0.955   0.961   0.983   0.901   0.950   0.993   0.988   0.967   1.003   1.099   1.186   1.156   1.025   1.013   1.014   1.021   1.070   1.066   0.989   1.123   1.059   0.936   0.925   0.971   0.953
   221.00    0.993   1.057   0.953   0.929   0.923   0.925   0.841   0.946   0.972   0.975   0.997   0.992   0.913   0.825   0.916   1.012   0.969   0.926   0.941   0.875   0.896   1.027   0.981   0.975   1.012   1.136   1.140   1.183   1.075   1.118   1.068   1.027   1.004   0.987   1.015   1.123   0.982   0.876   0.863   0.963   0.927
   211.00    0.986   0.943   0.988   0.912   0.892   0.813   0.914   0.865   1.028   1.062   0.942   0.886   0.881   0.838   1.000   0.989   0.964   0.922   0.870   0.836   1.009   1.095   0.982   0.960   1.108   1.091   1.112   1.095   1.161   1.172   1.077   0.999   0.935   0.985   1.082   1.079   0.960   0.929   0.904   0.892   0.893
   201.00    0.898   0.907   0.932   0.823   0.865   0.854   0.868   0.869   0.983   1.003   0.960   0.962   0.892   0.951   0.979   0.967   0.919   0.904   0.940   1.031   1.096   1.070   1.078   1.032   1.155   1.122   1.158   1.032   1.233   1.130   0.989   1.058   0.968   1.042   1.057   1.099   1.031   0.924   0.899   0.942   1.009
   191.00    0.848   0.910   0.918   0.768   0.874   0.902   0.815   0.885   0.926   0.872   0.972   0.901   0.884   0.987   0.971   0.982   1.082   1.099   0.965   1.035   1.021   1.228   1.090   1.067   1.185   1.140   1.138   1.269   1.139   1.139   1.049   1.073   1.073   1.076   1.093   1.075   0.962   0.960   0.953   0.974   0.988
   181.00    0.850   0.866   0.888   0.897   0.946   0.934   0.871   0.950   0.896   0.913   0.819   0.874   0.931   1.041   0.934   0.859   1.041   1.107   1.102   1.062   1.020   1.149   1.021   0.964   1.068   1.147   1.181   1.304   1.235   1.086   1.122   1.044   1.166   1.172   1.150   1.070   1.074   0.939   0.963   0.939   1.017
   171.00    0.885   0.806   0.898   0.896   0.872   0.962   0.909   0.887   0.914   0.862   0.957   0.962   0.974   0.953   0.940   0.891   0.885   0.963   1.029   1.040   1.014   1.121   0.949   0.991   1.016   1.042   1.196   1.251   1.227   1.082   1.120   1.135   1.147   1.086   1.058   1.000   1.014   1.018   0.921   0.938   1.020
   161.00    0.778   0.922   0.871   0.908   0.898   0.915   0.983   0.936   0.927   0.912   0.987   0.924   0.963   1.008   0.918   0.916   0.926   0.958   0.987   1.081   0.974   0.986   0.971   0.955   1.004   1.154   1.060   1.121   1.199   1.051   1.078   1.047   1.013   1.079   0.991   0.980   0.992   1.004   0.868   1.023   1.011
   151.00    0.832   0.952   0.978   0.891   0.945   0.943   1.020   0.957   0.925   0.882   1.069   0.963   0.958   1.000   0.964   0.931   0.912   0.862   0.989   1.037   1.009   0.938   0.902   0.971   1.010   1.060   0.916   1.030   1.104   1.153   1.006   1.042   1.018   0.992   0.955   0.882   0.877   0.881   0.917   1.044   1.002
   141.00    0.926   1.003   0.929   0.849   0.926   1.012   1.065   0.941   0.961   0.949   0.927   1.050   0.892   1.038   0.944   0.910   0.963   0.975   1.004   1.079   0.979   0.940   0.906   0.894   0.952   0.865   0.953   1.074   1.085   0.997   0.965   0.984   1.075   1.024   0.946   0.795   0.799   0.943   1.037   1.003   0.863
   131.00    0.931   0.953   0.964   0.938   0.903   1.054   1.058   0.994   0.969   0.919   0.882   0.958   0.950   0.996   1.036   0.961   1.017   0.935   1.060   1.067   0.929   0.932   0.900   0.837   0.991   1.003   1.003   0.936   1.052   0.992   0.917   0.989   0.988   0.973   1.000   0.913   0.919   0.931   0.961   0.917   0.907
   121.00    0.958   0.953   1.063   0.988   0.998   1.044   1.023   1.093   1.048   0.951   0.848   0.938   1.006   0.940   0.992   0.956   0.933   0.999   1.092   1.018   0.864   0.923   0.878   0.873   0.938   0.999   1.008   0.987   0.913   1.107   0.968   0.984   1.027   0.926   0.968   0.837   1.057   0.974   0.871   0.905   0.909
   111.00    0.973   0.938   1.040   1.012   0.997   0.988   0.937   1.076   0.916   0.858   0.935   0.988   0.990   0.989   0.954   0.930   0.978   1.005   1.086   0.900   0.882   0.914   0.925   0.806   0.898   0.935   0.969   0.910   0.889   0.967   0.975   0.900   0.896   0.964   0.961   0.885   0.939   1.013   0.951   0.970   0.909
   101.00    0.952   1.024   0.925   0.972   0.891   1.024   0.991   1.016   0.953   0.941   0.937   0.855   0.970   0.939   0.922   0.971   0.996   1.013   0.972   0.987   0.946   0.942   0.956   1.003   1.025   0.902   0.948   0.904   0.917   0.958   1.005   0.832   0.763   0.905   0.924   0.984   1.011   0.935   1.014   0.861   0.922
    91.00    1.014   1.084   0.979   0.983   0.961   1.003   1.004   0.929   0.764   0.835   0.855   0.955   0.873   0.932   0.967   1.040   0.885   0.929   0.942   0.968   0.904   0.999   0.957   0.989   1.017   0.963   0.918   0.844   0.855   0.950   0.928   0.855   0.927   0.948   0.880   0.980   0.993   1.039   0.948   0.861   0.924
    81.00    1.115   1.061   0.959   0.889   1.059   1.049   1.019   0.843   0.803   0.887   0.872   0.976   0.975   0.946   0.905   0.929   0.992   0.896   0.977   0.993   0.854   0.880   0.962   0.959   1.008   1.003   0.935   0.799   0.919   0.887   0.864   0.916   0.944   0.925   0.800   1.001   1.056   1.074   0.969   0.816   0.859
    71.00    1.146   1.138   0.978   0.992   0.957   0.927   0.952   0.850   0.834   0.876   0.954   0.996   0.906   0.969   0.888   0.880   0.895   0.900   0.938   0.983   0.925   0.859   0.924   0.913   1.006   1.063   0.947   0.897   0.966   0.907   0.898   0.847   0.925   1.073   0.896   0.871   1.044   1.107   1.006   1.028   0.918
    61.00    1.077   1.025   1.032   1.047   1.063   0.997   0.947   0.942   0.850   0.873   0.964   0.900   0.909   0.968   0.914   0.869   0.901   0.920   1.130   1.026   0.920   0.865   0.882   0.931   0.949   1.035   0.913   0.932   0.930   0.855   0.831   0.926   0.951   1.042   0.969   0.888   0.964   0.979   0.970   0.996   0.986
    51.00    1.087   1.173   1.052   1.037   0.967   0.905   0.949   1.018   0.891   0.953   0.953   0.904   0.936   0.992   0.868   0.968   0.876   0.975   1.059   0.986   0.888   0.823   0.829   0.852   0.960   1.017   0.952   0.898   0.936   0.917   0.852   0.901   0.904   0.966   0.917   0.983   0.894   1.017   1.023   0.949   0.881
    41.00    1.087   1.124   1.017   1.079   0.909   0.934   0.956   1.014   0.955   0.927   0.920   0.959   1.028   0.965   1.000   0.954   1.003   0.977   0.962   0.885   0.828   0.880   0.854   0.834   0.874   0.913   0.942   0.980   0.936   1.009   0.917   0.838   0.863   0.870   0.917   0.960   1.049   1.017   0.923   0.847   0.908
    31.00    1.066   1.058   1.014   0.987   0.864   0.875   0.947   0.982   1.041   1.001   0.972   0.874   0.933   0.961   1.002   0.915   0.941   1.050   0.939   0.850   0.843   0.940   0.911   0.789   0.866   0.932   1.066   1.029   1.051   1.077   0.958   0.820   0.897   0.819   0.910   0.908   1.012   0.969   0.844   0.887   0.881
    21.00    1.109   1.037   0.922   0.976   0.923   0.856   0.929   1.003   1.148   1.077   0.995   1.000   0.945   1.021   1.049   0.883   0.945   1.032   0.972   0.876   0.874   0.893   0.841   0.892   0.897   0.997   0.995   0.959   0.990   1.032   0.936   0.969   0.929   0.861   0.868   0.816   0.983   0.890   0.946   0.892   0.852
    11.00    1.111   1.014   0.893   0.988   0.990   0.818   0.979   1.021   1.113   1.053   0.978   0.953   0.981   0.981   1.072   0.947   0.992   1.032   0.980   0.924   0.858   0.896   0.797   0.920   1.024   0.941   1.055   0.964   0.975   1.081   1.051   1.035   1.004   0.861   0.855   0.872   0.869   0.934   0.957   0.965   0.898
     1.00    0.974   0.973   0.937   0.931   0.909   0.976   0.950   0.998   1.023   1.030   0.993   0.994   0.997   1.100   1.027   0.981   0.981   0.921   0.943   0.931   0.903   0.871   0.909   0.999   1.045   1.016   1.052   1.071   0.986   1.106   1.116   1.145   1.041   1.036   0.985   1.010   0.840   0.874   1.000   0.952   0.938

   Height   Standard deviation at grid points for the w component:
   301.00    0.960   1.096   1.017   0.859   0.872   0.814   0.803   0.924   0.839   0.929   0.973   0.976   0.921   0.989   1.075   0.908   0.904   0.854   0.845   0.970   1.095   1.190   1.067   1.056   0.956   0.933   0.902   0.974   1.009   0.934   0.890   0.918   0.900   1.057   1.106   1.130   1.126   1.033   0.977   0.932   0.992
   291.00    0.930   1.022   1.029   0.924   0.977   0.895   0.834   0.920   0.975   0.893   1.001   0.963   0.941   0.958   1.036   0.938   0.994   0.861   0.894   0.930   1.076   1.144   1.148   1.000   1.001   0.931   0.932   0.950   0.905   0.959   0.935   0.911   0.869   1.011   1.040   1.100   1.113   1.080   1.004   0.929   1.057
   281.00    0.988   1.060   1.000   0.990   0.943   0.905   0.886   0.949   1.054   0.942   0.961   1.015   0.924   0.981   0.868   0.857   0.969   0.938   0.915   0.861   0.999   1.107   1.273   1.027   1.015   1.065   0.886   0.917   0.967   0.881   0.896   0.884   0.931   1.015   1.061   1.056   1.018   1.019   1.011   1.064   1.103
   271.00    0.986   0.968   1.037   1.053   0.982   0.930   0.964   0.935   1.006   0.920   0.999   0.936   0.992   0.962   0.902   0.820   0.986   0.937   0.939   0.894   1.060   1.146   1.100   1.086   1.018   0.976   0.974   0.978   0.982   0.855   0.922   0.982   0.969   1.025   1.097   1.120   1.012   0.917   0.973   0.978   1.021
   261.00    0.894   0.966   1.043   0.968   0.890   0.903   1.042   0.957   0.895   0.978   0.889   0.890   0.947   1.100   0.942   0.955   1.039   0.968   0.869   0.924   0.990   1.106   1.018   0.990   0.992   0.930   0.945   0.968   0.910   0.881   0.936   0.921   0.992   1.029   0.994   1.057   0.990   0.995   0.804   0.917   0.997
   251.00    0.986   0.950   1.070   0.967   0.886   0.915   0.842   0.857   0.905   0.944   0.925   0.822   0.900   1.018   0.966   1.019   1.002   0.975   0.855   0.969   0.948   0.997   0.952   0.887   0.883   0.772   0.879   0.917   0.890   0.964   0.897   0.914   0.997   0.978   0.943   0.991   1.021   0.902   0.978   0.929   0.872
   241.00    0.974   0.908   1.099   1.092   0.958   0.868   0.902   0.951   0.861   0.977   0.908   0.971   0.914   0.880   0.880   0.880   0.963   0.888   0.894   0.900   0.912   0.881   0.865   0.893   0.820   0.891   0.878   0.949   0.953   0.957   0.966   0.903   0.987   1.028   0.898   0.911   0.900   0.945   0.941   0.931   0.902
   231.00    0.939   0.993   0.999   1.064   1.009   0.965   0.857   0.804   0.872   0.887   0.856   1.025   0.993   0.909   0.881   0.849   0.915   0.957   0.999   0.999   0.932   0.904   0.907   0.901   0.851   0.875   0.894   0.908   0.915   1.029   0.873   0.910   0.922   0.913   1.005   0.893   0.920   0.898   0.940   0.988   0.930
   221.00    0.955   0.996   1.065   1.042   1.017   0.892   0.865   0.872   0.837   0.807   0.781   0.871   0.923   0.925   0.843   0.927   1.006   1.057   1.009   0.895   0.835   0.897   0.902   0.884   0.946   0.930   0.975   0.942   0.919   1.008   0.967   0.936   0.865   0.886   0.977   0.971   0.943   0.897   0.942   0.943   0.989
   211.00    0.915   1.008   1.157   0.975   0.938   0.870   0.917   0.910   0.876   0.859   0.830   0.872   0.891   0.943   0.854   0.930   1.013   0.960   0.834   0.908   0.984   0.876   0.866   0.882   0.887   0.905   0.990   0.906   1.070   1.035   0.998   0.939   0.904   0.977   0.971   1.009   0.956   0.978   0.965   1.051   0.964
   201.00    0.976   1.041   1.046   0.989   0.949   0.935   0.821   0.928   0.915   0.888   0.842   0.833   0.921   0.927   0.891   0.893   1.038   0.991   0.920   0.939   0.879   0.883   0.862   0.815   0.942   0.877   0.921   0.943   1.009   0.940   0.999   0.976   1.037   1.034   1.026   1.093   1.030   1.012   1.041   1.012   1.071
   191.00    0.906   0.900   1.009   1.007   0.996   1.011   0.874   0.862   0.904   0.914   0.850   0.917   0.930   0.878   0.839   0.902   1.053   0.977   0.977   0.941   0.830   0.942   0.970   0.885   0.956   0.944   0.906   0.959   1.025   0.881   0.945   1.001   1.064   0.960   1.042   1.041   1.049   0.956   0.996   0.902   1.071
   181.00    0.878   0.976   1.058   1.011   1.060   1.108   0.936   0.993   0.912   0.909   0.912   0.954   0.893   0.795   0.913   1.007   1.012   0.958   1.024   0.919   0.902   0.867   1.045   1.047   0.986   1.007   0.868   0.869   0.967   0.948   0.880   0.976   0.968   1.029   1.037   1.002   0.991   0.982   0.959   0.921   1.012
   171.00    0.945   1.039   0.996   0.961   0.965   1.027   0.966   0.958   0.902   0.866   0.946   0.906   0.876   0.817   0.951   0.962   0.938   0.971   0.897   0.929   0.944   0.984   1.033   1.042   1.003   0.969   0.944   0.926   0.969   0.963   0.907   0.852   0.960   0.827   0.910   1.086   0.999   0.972   0.995   0.886   0.996
   161.00    0.980   1.019   1.016   1.049   0.931   0.873   0.898   0.897   0.867   0.872   0.831   0.894   0.866   0.895   1.041   0.954   0.979   0.940   0.842   0.865   0.908   0.909   0.939   1.004   0.954   0.912   1.031   1.045   1.091   1.057   0.858   0.920   0.923   0.948   0.972   1.021   1.008   1.009   0.945   0.964   1.022
   151.00    0.885   0.950   1.031   0.992   1.042   0.910   0.839   0.958   0.926   0.894   0.870   0.876   0.891   0.864   1.013   1.027   1.045   0.999   0.973   0.902   0.878   0.842   0.827   0.902   0.856   0.946   0.926   1.063   1.092   1.167   0.969   1.021   0.926   1.012   1.031   1.043   0.980   1.015   0.925   0.954   0.976
   141.00    0.903   0.989   1.053   1.106   0.993   0.945   0.905   0.941   0.956   0.911   0.959   0.976   0.940   0.992   0.987   0.981   1.006   1.089   0.905   0.923   0.857   0.931   0.894   0.843   0.865   0.962   1.004   0.992   1.012   1.134   1.003   1.098   1.002   1.002   1.075   0.958   0.985   1.059   0.888   0.966   0.939
   131.00    0.978   0.908   0.998   1.060   1.043   1.020   1.078   0.977   1.061   1.058   0.960   0.977   0.915   0.980   0.935   0.944   0.980   1.092   0.932   0.944   0.981   0.907   0.919   0.918   0.876   0.928   1.021   1.011   1.022   0.966   1.078   0.984   0.976   0.973   1.051   1.062   0.927   0.916   1.014   0.984   0.945
   121.00    1.051   0.947   0.960   0.970   1.085   1.129   1.093   1.021   1.079   1.098   1.003   0.933   0.994   0.971   0.966   1.022   1.005   1.097   0.947   0.942   0.901   0.877   0.870   0.877   0.955   0.918   0.935   1.022   0.982   0.981   1.018   0.978   0.977   0.835   0.978   1.010   0.954   0.981   0.924   0.999   0.995
   111.00    0.967   0.983   1.013   1.007   1.180   1.134   0.980   0.951   1.091   1.057   0.941   0.947   1.007   0.928   0.959   1.050   1.017   1.040   0.911   0.908   0.996   0.887   0.839   1.070   1.058   0.993   0.998   1.050   1.122   1.043   0.967   1.016   1.007   0.899   0.969   1.038   0.929   0.958   0.954   0.914   0.932
   101.00    0.951   1.031   1.006   1.041   1.126   1.113   0.912   0.960   0.999   1.076   1.037   0.973   1.073   1.051   0.932   0.957   1.039   0.978   1.026   0.892   0.984   1.067   1.081   1.109   1.064   1.004   1.001   1.052   1.167   1.027   0.949   0.959   1.026   0.897   0.956   0.992   0.938   1.014   0.987   1.019   0.935
    91.00    0.953   1.080   1.026   1.029   1.117   0.997   1.037   0.986   0.978   0.985   1.010   1.049   1.057   1.016   0.942   0.928   1.059   1.027   0.990   0.886   1.051   1.095   1.113   1.039   1.079   1.076   1.107   1.047   1.163   1.044   1.039   1.032   1.016   0.980   1.033   0.955   0.964   1.002   0.886   0.882   0.916
    81.00    1.038   1.035   0.927   0.939   0.971   1.004   0.997   0.883   0.871   1.027   1.026   0.952   1.049   1.009   0.962   0.920   1.042   1.016   0.983   1.072   1.117   1.195   0.997   0.992   1.078   1.057   1.083   1.138   1.133   1.156   0.982   0.976   0.973   0.932   0.985   0.871   0.960   0.902   0.934   0.929   0.830
    71.00    1.016   1.055   0.947   0.907   0.987   1.085   1.106   0.992   0.985   1.004   0.952   0.956   1.071   1.075   0.966   1.053   1.116   0.917   0.974   1.103   1.155   1.066   0.995   0.981   1.032   1.063   1.094   1.147   1.103   1.142   0.908   0.949   0.972   0.999   0.977   0.940   0.915   0.826   0.932   0.953   0.985
    61.00    0.991   1.056   1.037   1.042   1.069   0.974   1.000   1.023   0.989   0.959   1.070   1.026   1.013   1.166   0.981   1.082   1.019   0.963   1.034   1.092   1.123   1.094   0.977   0.962   1.028   1.067   1.086   1.083   1.143   1.100   0.933   0.946   0.969   0.892   0.939   0.781   0.912   0.866   0.880   0.986   0.954
    51.00    1.067   1.023   0.908   0.951   0.990   1.015   1.066   0.978   0.977   0.972   1.077   1.033   1.014   1.065   1.045   1.161   1.079   1.005   1.027   0.994   0.986   1.029   0.944   0.927   1.057   1.010   1.106   1.105   1.090   0.992   0.983   0.953   0.985   0.813   0.842   0.908   0.835   0.781   0.923   0.988   1.065
    41.00    0.962   1.040   1.036   1.076   0.973   1.035   0.998   0.932   0.991   0.986   1.003   0.948   1.091   1.065   0.983   1.086   1.001   0.998   0.961   0.961   0.886   0.929   1.021   0.975   1.005   0.963   1.064   1.095   1.046   0.968   1.103   0.990   0.925   0.936   0.915   0.845   0.918   0.849   0.963   0.940   0.938
    31.00    1.114   1.052   1.018   0.977   0.970   0.970   1.031   0.923   0.921   1.060   1.044   1.121   1.030   1.055   1.041   1.110   1.060   0.905   0.877   0.896   0.844   0.885   0.929   0.933   1.022   1.006   1.143   1.130   1.099   1.078   1.029   0.958   1.046   0.969   1.058   0.887   0.855   0.881   0.925   0.945   0.931
    21.00    0.997   1.120   1.037   0.954   1.001   0.939   0.985   1.081   0.953   0.981   1.028   1.127   1.010   0.987   0.994   1.025   1.014   0.896   0.902   0.917   0.912   0.885   0.966   0.960   0.973   0.990   1.051   1.079   1.006   1.018   0.905   0.948   1.068   0.981   1.027   0.822   0.789   0.805   0.912   0.964   0.901
    11.00    0.999   0.983   1.037   1.071   1.058   1.070   1.008   1.081   1.142   1.080   0.863   1.024   1.026   0.953   0.931   0.991   1.001   1.034   0.954   0.942   0.988   0.895   0.889   0.888   0.939   1.098   0.991   0.945   1.019   1.021   0.931   0.972   1.081   1.012   1.055   1.037   0.857   0.858   0.982   0.989   1.050
     1.00    0.974   0.988   1.054   1.047   1.057   1.122   1.070   1.062   1.079   0.994   0.909   1.033   1.036   0.872   0.987   1.014   0.985   0.957   0.969   0.951   0.947   0.965   0.945   0.918   0.887   0.968   0.932   0.984   1.065   0.976   0.892   0.893   1.031   0.980   1.017   0.957   0.940   0.882   0.927   0.999   0.956

   Mean standard deviation across all grid points:
      u component:    0.987 m/s
      v component:    0.973 m/s
      w component:    0.973 m/s


U-component (X) statistics from the interpolated hub point:

   Mean =  10.0066 m/s
   TI   =   9.1068 %


Processing complete.  8.8125 CPU seconds used.
