
This summary file was generated by TurbSim (from OpenFAST-v3.4.1) on 29-Nov-2024 at 15:48:39.


Runtime Options:

      2049  Random seed #1
         0  Random seed #2
         F  Output binary HH turbulence parameters?
         F  Output formatted turbulence parameters?
         F  Output AeroDyn HH files?
         T  Output AeroDyn FF files?
         F  Output BLADED FF files?
         F  Output tower data?
         F  Output HAWC FF files?
         F  Output formatted FF files?
         T  Output coherent turbulence time step file?
 0 -  NONE  IEC turbulence models scaled to exact specified standard deviation


Turbine/Model Specifications:

        31  Vertical grid-point matrix dimension
        41  Horizontal grid-point matrix dimension
     0.100  Time step [seconds]
   200.000  Analysis time [seconds]
   200.000  Usable output time [seconds]
   151.000  Hub height [m]
   300.000  Grid height [m]
   600.000  Grid width [m]
     0.000  Vertical flow angle [degrees]
     0.000  Horizontal flow angle [degrees]


Meteorological Boundary Conditions:

    IECVKM  IEC von Karman spectral model
         1  IEC standard: IEC 61400-1 Ed. 2: 1999
    10.000  Percent turbulence intensity, IEC 61400-1 Ed. 2: 1999
       NTM  IEC Normal Turbulence Model
       N/A  IEC Extreme Turbulence Model (ETM) "c" parameter [m/s]
       PL   Wind profile type
   150.000  Reference height [m]
    10.000  Reference wind speed [m/s]
       N/A  Jet height [m]
     0.100  Power law exponent
     0.030  Surface roughness length [m]


Non-IEC Meteorological Boundary Conditions:

       N/A  Site latitude [degrees]
       N/A  Gradient Richardson number
       N/A  Friction or shear velocity [m/s]
       N/A  Mixing layer depth [m]
       N/A  Mean hub u'w' Reynolds stress
       N/A  Mean hub u'v' Reynolds stress
       N/A  Mean hub v'w' Reynolds stress


Spatial Coherence Models:

       IEC  u-component coherence model
       IEC  v-component coherence model
       IEC  w-component coherence model
(   12.000, 0.659E-03)  u-component coherence parameters
(   12.000, 0.659E-03)  v-component coherence parameters
(   12.000, 0.659E-03)  w-component coherence parameters
       N/A  Coherence exponent


You have requested that the following file(s) be generated:

   ./TurbulentWind_30WT/FOWTs/Wind\InflowWind_High_WT25.bts (AeroDyn/TurbSim full-field wind file)


Turbulence Simulation Scaling Parameter Summary:

   Turbulence model used                            =  IEC von Karman
   Turbulence characteristic                        =  User-specified
   IEC standard                                     =  IEC 61400-1 Ed. 2: 1999
   Mean wind speed at hub height                    =   10.007 m/s
   Characteristic value of standard deviation       =    1.001 m/s
   Turbulence scale                                 =   21.000 m
   Isotropic integral scale                         =   73.500 m
   Characteristic value of hub turbulence intensity =   10.000%
   Gradient Richardson number                       =    0.000

   Wind profile type                                =  Power law
   Power law exponent                               =    0.100
   Mean shear across rotor disk                     =    0.016 (m/s)/m
   Assumed rotor diameter                           =  300.000 m
   Surface roughness length                         =    0.030 m

   Nyquist frequency of turbulent wind field        =    5.000 Hz

   Number of time steps in the FFT                  =     2600
   Number of time steps output                      =     2600
   Number of points simulated                       =     1271


Mean Flow Angles:

   Vertical   =   0.0 degrees
   Horizontal =   0.0 degrees

Mean Wind Speed Profile:

   Height    Wind Speed   Horizontal Angle  Vertical Angle  U-comp (X)   V-comp (Y)   W-comp (Z)
     (m)        (m/s)         (degrees)       (degrees)       (m/s)        (m/s)        (m/s)   
   ------    ----------   ----------------  --------------  ----------   ----------   ----------
    301.0       10.72            0.00            0.00         10.72         0.00         0.00
    291.0       10.69            0.00            0.00         10.69         0.00         0.00
    281.0       10.65            0.00            0.00         10.65         0.00         0.00
    271.0       10.61            0.00            0.00         10.61         0.00         0.00
    261.0       10.57            0.00            0.00         10.57         0.00         0.00
    251.0       10.53            0.00            0.00         10.53         0.00         0.00
    241.0       10.49            0.00            0.00         10.49         0.00         0.00
    231.0       10.44            0.00            0.00         10.44         0.00         0.00
    221.0       10.40            0.00            0.00         10.40         0.00         0.00
    211.0       10.35            0.00            0.00         10.35         0.00         0.00
    201.0       10.30            0.00            0.00         10.30         0.00         0.00
    191.0       10.24            0.00            0.00         10.24         0.00         0.00
    181.0       10.19            0.00            0.00         10.19         0.00         0.00
    171.0       10.13            0.00            0.00         10.13         0.00         0.00
    161.0       10.07            0.00            0.00         10.07         0.00         0.00
    151.0       10.01            0.00            0.00         10.01         0.00         0.00
    141.0        9.94            0.00            0.00          9.94         0.00         0.00
    131.0        9.87            0.00            0.00          9.87         0.00         0.00
    121.0        9.79            0.00            0.00          9.79         0.00         0.00
    111.0        9.70            0.00            0.00          9.70         0.00         0.00
    101.0        9.61            0.00            0.00          9.61         0.00         0.00
     91.0        9.51            0.00            0.00          9.51         0.00         0.00
     81.0        9.40            0.00            0.00          9.40         0.00         0.00
     71.0        9.28            0.00            0.00          9.28         0.00         0.00
     61.0        9.14            0.00            0.00          9.14         0.00         0.00
     51.0        8.98            0.00            0.00          8.98         0.00         0.00
     41.0        8.78            0.00            0.00          8.78         0.00         0.00
     31.0        8.54            0.00            0.00          8.54         0.00         0.00
     21.0        8.22            0.00            0.00          8.22         0.00         0.00
     11.0        7.70            0.00            0.00          7.70         0.00         0.00
      1.0        6.06            0.00            0.00          6.06         0.00         0.00


Harvested Random Seeds after Generation of the Random Numbers:

   1280148331 Harvested seed # 1
   1971657505 Harvested seed # 2


Hub-Height Simulated Turbulence Statistical Summary:

   Type of Wind        Min (m/s)   Mean (m/s)    Max (m/s)  Sigma (m/s)       TI (%)
   ----------------    ---------   ----------    ---------  -----------       ------
   Longitudinal (u)         6.55        10.01        13.05        1.014       10.138
   Lateral (v)             -3.71         0.00         3.44        0.958        9.575
   Vertical (w)            -2.68         0.00         2.60        0.958        9.573
   U component              6.55        10.01        13.05        1.014       10.138
   V component             -3.71         0.00         3.44        0.958        9.575
   W component             -2.68         0.00         2.60        0.958        9.573
   Horizontal (U&V)         6.55        10.05        13.14        1.005       10.001
   Total                    6.55        10.10        13.15        1.007        9.972

                       Min Reynolds     Mean Reynolds    Max Reynolds    Correlation
   Product             Stress (m/s)^2   Stress (m/s)^2   Stress (m/s)^2  Coefficient
   ----------------    --------------   --------------   --------------  -----------
   u'w'                     -2.928             0.232             4.357         0.239
   u'v'                     -5.552             0.016             6.261         0.017
   v'w'                     -4.296             0.021             6.128         0.023


   Friction Velocity (Ustar)  =      0.482 m/s
   Maximum Instantaneous TKE  =      7.276 (m/s)^2
   Maximum Instantaneous CTKE =      3.662 (m/s)^2


Grid Point Variance Summary:

   Y-coord -300.00 -285.00 -270.00 -255.00 -240.00 -225.00 -210.00 -195.00 -180.00 -165.00 -150.00 -135.00 -120.00 -105.00  -90.00  -75.00  -60.00  -45.00  -30.00  -15.00    0.00   15.00   30.00   45.00   60.00   75.00   90.00  105.00  120.00  135.00  150.00  165.00  180.00  195.00  210.00  225.00  240.00  255.00  270.00  285.00  300.00

   Height   Standard deviation at grid points for the u component:
   301.00    0.989   0.955   1.047   0.981   0.843   0.881   0.934   0.987   0.980   0.980   0.981   1.053   1.007   0.915   0.827   0.871   0.899   0.904   0.921   0.939   0.905   0.939   1.100   0.889   0.894   0.991   0.957   0.944   0.986   0.857   0.869   0.879   0.895   0.916   0.889   0.934   0.952   0.879   0.925   0.783   0.876
   291.00    0.982   0.975   0.941   1.004   0.867   0.874   0.965   0.922   1.079   1.002   1.051   0.994   0.987   0.922   0.900   0.849   0.910   0.937   0.976   0.931   0.951   0.965   1.030   0.882   0.905   0.979   1.024   1.024   1.001   0.871   0.967   0.861   0.830   0.964   0.952   0.833   0.867   0.881   0.825   0.874   0.874
   281.00    1.110   1.029   0.878   0.849   0.809   0.829   0.890   0.896   0.948   0.952   0.990   0.972   1.025   0.826   0.809   0.847   0.834   0.846   0.918   0.837   0.930   0.983   0.982   0.854   0.999   0.938   1.100   1.060   1.049   1.002   0.970   0.952   0.909   0.925   0.946   0.888   0.795   0.797   0.843   0.813   0.803
   271.00    1.063   0.895   0.804   0.832   0.838   0.833   0.880   0.925   0.839   0.883   0.919   1.013   0.951   1.016   0.910   0.915   0.882   0.806   0.903   0.782   0.749   0.831   0.908   0.911   0.886   1.031   1.078   1.103   0.936   0.909   0.887   0.954   0.982   0.931   0.880   0.937   0.882   0.847   0.940   0.947   0.868
   261.00    1.034   0.937   1.022   0.915   0.887   0.873   0.919   0.993   0.942   0.874   0.902   0.899   0.946   0.938   0.844   0.909   0.872   0.877   0.887   0.863   0.804   0.725   0.957   0.780   0.941   1.093   1.022   1.071   1.010   0.789   0.840   0.805   0.925   1.062   1.017   0.888   0.836   0.870   1.046   0.859   0.937
   251.00    1.081   1.159   1.094   0.997   0.978   0.869   0.980   0.901   0.951   0.944   0.863   0.855   0.805   0.924   0.796   0.872   0.850   0.889   0.882   0.821   0.794   0.827   0.825   0.773   0.877   0.966   1.024   0.990   0.971   0.828   0.856   0.820   0.893   0.979   1.027   0.924   0.847   0.858   0.938   0.873   0.954
   241.00    0.918   1.032   1.199   1.048   0.957   0.932   0.971   0.903   0.918   0.924   0.806   0.822   0.918   0.831   0.910   0.859   0.865   0.838   0.865   0.929   0.992   0.866   0.806   0.887   0.917   0.956   1.113   0.963   0.957   0.846   0.902   0.865   0.925   1.016   0.947   0.896   0.837   0.988   0.915   0.807   1.006
   231.00    0.820   1.011   1.050   1.054   0.939   0.868   0.911   0.953   0.888   0.880   0.919   0.795   0.858   0.849   0.972   0.868   0.967   0.940   0.973   1.027   1.039   0.934   0.857   0.843   0.916   0.985   0.948   0.997   0.791   0.945   0.975   0.900   0.902   1.063   0.847   0.837   0.837   0.931   0.939   0.941   0.989
   221.00    0.901   0.866   0.982   0.908   0.986   0.854   0.930   0.985   0.892   0.861   0.924   0.841   0.924   0.867   0.905   0.856   0.838   0.913   0.947   1.084   1.009   1.071   1.002   0.933   0.973   1.053   0.971   0.899   0.904   0.957   0.961   1.012   0.993   0.987   0.865   0.777   0.852   0.907   0.920   0.839   0.904
   211.00    0.930   0.876   0.915   1.089   0.898   0.891   0.838   0.920   0.883   0.934   0.798   0.875   0.834   0.894   0.843   0.839   0.864   0.991   0.990   0.942   0.988   1.097   1.061   0.971   0.994   0.899   1.056   0.871   0.837   0.835   1.000   1.062   0.906   0.852   0.707   0.751   0.883   0.930   0.718   0.787   0.838
   201.00    0.936   0.905   0.947   1.027   0.989   0.844   0.863   0.914   0.990   0.927   1.048   0.929   0.845   0.797   0.895   0.851   0.889   1.022   0.978   0.980   1.009   1.046   1.231   1.175   0.992   1.053   1.011   1.025   0.941   1.052   1.023   0.983   0.819   0.832   0.905   0.895   0.908   0.915   0.904   0.902   1.043
   191.00    0.992   0.916   0.876   0.916   0.913   0.920   0.818   0.915   0.894   0.893   0.990   0.972   0.912   0.792   0.783   0.797   0.961   0.982   1.007   0.965   1.004   1.033   1.216   1.155   1.070   1.141   0.967   1.050   1.085   1.115   1.020   0.888   0.849   0.855   0.896   0.880   0.864   0.968   0.952   0.890   0.948
   181.00    0.981   0.991   0.801   0.857   0.946   0.970   0.905   0.841   0.814   0.928   0.924   0.887   0.798   0.796   0.737   0.860   0.951   0.998   1.013   1.030   1.144   1.209   1.272   1.214   1.191   1.068   0.954   0.933   1.084   1.231   0.992   0.922   0.919   0.929   0.865   0.927   0.983   0.950   0.902   0.951   0.874
   171.00    1.025   0.958   0.897   0.862   0.764   0.860   0.766   0.890   0.833   0.799   0.931   0.932   0.852   0.731   0.853   0.948   0.968   0.919   1.065   1.058   1.105   1.088   1.163   1.039   1.085   0.990   0.959   0.895   1.063   1.244   0.932   0.912   1.000   1.024   1.056   0.982   1.052   0.990   0.833   0.941   0.880
   161.00    0.988   0.969   0.941   0.942   0.937   0.895   0.857   0.887   0.788   0.855   0.957   0.950   0.841   0.878   0.799   0.831   1.024   0.983   1.101   1.095   0.984   1.057   1.113   1.091   1.115   0.991   0.940   0.945   0.962   1.084   1.062   0.876   1.007   1.011   0.983   0.991   0.969   1.001   0.910   0.887   0.965
   151.00    0.968   1.055   0.888   0.842   0.853   0.844   0.885   0.837   0.903   1.018   0.988   0.909   0.926   0.858   0.793   0.917   0.998   1.037   1.162   0.979   1.014   0.913   1.067   1.128   1.013   0.993   0.834   0.969   0.880   1.135   1.071   0.807   1.005   0.933   0.890   1.050   1.059   0.975   1.011   0.971   0.998
   141.00    0.988   1.005   0.907   0.943   0.842   0.837   0.853   0.974   1.005   1.014   1.062   0.932   0.982   0.902   0.827   0.900   0.916   0.970   1.083   1.028   1.082   0.970   0.999   1.053   1.033   0.754   0.869   0.882   1.011   1.153   1.013   0.969   0.988   1.013   0.902   0.994   1.003   1.051   1.039   0.859   1.014
   131.00    0.875   0.874   0.974   0.955   0.778   0.860   0.907   0.960   0.973   0.953   1.045   0.989   0.978   0.949   0.775   0.849   1.032   0.990   1.066   1.047   1.163   1.011   0.917   0.888   1.073   0.888   0.869   0.861   1.017   1.200   1.098   0.957   1.012   1.012   0.988   0.844   1.004   0.950   1.104   1.011   1.053
   121.00    0.854   0.957   1.052   0.852   0.801   0.897   0.898   0.908   0.994   0.952   0.986   0.983   0.952   0.847   0.764   0.822   1.052   1.027   0.927   1.043   1.126   1.044   0.887   0.916   1.066   0.969   0.925   1.027   1.146   1.075   1.134   0.963   0.987   0.874   0.962   0.959   0.964   1.030   1.084   1.069   1.012
   111.00    1.003   0.984   0.943   0.776   0.833   0.841   0.892   0.997   0.920   1.043   1.046   0.924   0.892   0.831   0.898   0.985   0.977   1.126   0.872   0.914   0.995   1.041   0.920   0.926   0.949   0.963   0.985   1.014   1.071   1.057   1.109   0.976   0.967   0.835   0.967   0.960   0.961   0.979   1.224   1.239   0.991
   101.00    0.924   1.008   1.028   0.855   0.799   0.749   0.854   0.924   0.986   0.945   0.987   0.880   0.786   0.857   0.875   0.840   1.033   1.080   0.925   0.981   0.956   0.967   1.068   0.883   0.952   0.876   1.079   1.044   1.136   1.064   1.074   0.919   0.864   0.931   0.914   0.905   0.874   1.033   1.240   1.246   1.011
    91.00    0.986   0.945   0.928   0.837   0.886   0.844   0.845   0.848   0.991   0.961   0.926   0.948   0.780   0.791   0.906   0.807   0.925   0.996   1.003   1.123   1.006   1.013   1.126   0.880   0.856   0.984   1.060   1.103   1.092   1.021   0.963   0.954   0.964   1.007   0.869   0.817   0.925   1.136   1.173   1.122   1.042
    81.00    0.833   0.950   0.801   0.854   0.929   0.833   0.813   0.946   0.982   1.050   0.943   0.987   0.935   0.958   0.923   0.859   0.814   0.822   0.906   1.096   1.136   1.018   1.163   0.956   0.925   0.997   1.177   1.069   1.056   0.919   0.915   0.947   0.974   0.932   0.837   0.820   0.875   1.082   1.175   1.138   1.067
    71.00    0.939   0.839   0.779   0.930   0.906   0.842   0.976   1.006   0.947   1.034   0.915   0.933   0.938   0.913   0.885   0.873   0.797   0.845   0.971   1.172   1.154   1.193   1.128   1.114   1.089   1.026   1.119   1.144   1.011   0.927   0.878   0.818   0.888   0.939   0.927   0.860   0.942   1.128   1.242   1.174   1.126
    61.00    1.048   0.975   0.877   0.882   0.910   0.866   0.927   0.870   0.951   0.959   0.905   0.984   1.012   0.946   0.872   0.872   0.852   0.873   0.976   1.187   1.126   1.093   1.123   1.014   0.916   1.016   1.085   1.141   1.149   0.925   0.914   0.898   0.965   1.006   0.911   0.850   0.950   1.068   1.111   1.139   1.091
    51.00    1.059   0.979   0.943   0.937   0.928   0.972   0.859   0.879   1.006   1.003   0.967   0.909   1.027   0.848   0.902   0.829   0.928   0.911   0.988   1.072   1.137   1.259   1.043   1.022   0.929   1.034   1.103   1.022   1.074   0.906   0.893   1.067   1.015   0.884   0.853   0.719   0.963   0.946   0.972   1.060   0.981
    41.00    1.065   1.062   0.961   0.941   0.937   0.904   0.927   0.859   0.958   1.026   0.959   0.945   0.891   0.997   0.967   1.062   0.960   0.923   0.922   1.062   1.096   1.244   1.068   1.051   0.928   1.083   1.040   1.110   1.000   1.003   0.791   0.930   0.974   0.883   0.808   0.779   0.972   1.084   0.989   0.993   1.053
    31.00    1.094   1.005   1.012   1.080   0.944   0.945   0.942   0.908   0.941   0.914   1.052   0.954   0.970   0.993   0.964   1.054   0.948   0.832   0.990   0.921   1.105   1.268   1.202   1.110   0.956   1.090   1.032   1.106   1.015   0.862   0.784   0.963   0.957   0.899   0.857   0.955   0.948   1.001   0.952   0.930   0.952
    21.00    1.100   1.059   1.042   1.121   1.031   1.008   0.909   0.819   0.971   0.975   0.970   1.067   1.024   1.055   0.960   0.909   0.936   0.888   0.969   1.095   1.040   1.116   1.145   0.995   0.995   1.036   1.014   1.015   0.985   1.014   0.944   0.858   0.838   0.858   0.840   0.862   1.002   1.018   0.909   0.831   0.945
    11.00    1.059   1.117   1.017   1.057   1.120   1.008   0.824   0.888   0.894   0.966   0.945   0.969   1.060   1.099   0.934   0.970   0.942   1.003   0.901   0.954   1.135   1.002   1.039   1.000   1.061   1.009   0.996   0.868   0.978   0.964   0.940   0.977   0.717   0.826   0.774   0.893   0.996   0.937   0.856   0.933   1.008
     1.00    0.963   1.093   0.965   1.038   1.052   0.975   0.922   0.921   0.960   0.937   1.025   1.049   1.074   1.060   0.981   0.889   0.958   1.048   1.007   1.009   1.105   1.081   1.179   1.216   1.103   1.114   1.020   0.966   0.987   0.995   0.962   0.920   0.731   0.884   0.821   0.909   1.007   0.949   0.929   0.955   0.992

   Height   Standard deviation at grid points for the v component:
   301.00    1.113   0.984   0.992   0.919   0.943   1.015   0.916   0.889   0.941   0.970   1.004   0.866   0.914   0.989   0.895   0.944   1.023   0.950   0.948   1.042   0.982   0.930   0.976   1.061   0.909   1.042   1.139   0.947   1.160   1.120   0.956   0.880   1.001   0.953   1.065   0.938   0.920   0.866   0.911   0.918   1.029
   291.00    1.097   1.042   1.010   0.901   0.924   1.009   0.912   0.810   0.883   0.921   0.887   0.954   0.791   0.977   1.048   1.045   1.097   0.897   1.007   1.056   1.054   0.999   0.882   1.029   0.948   1.077   1.032   1.079   0.995   0.955   0.853   0.951   0.966   0.995   0.962   0.996   0.948   0.894   0.831   0.807   0.996
   281.00    1.109   1.083   1.078   0.920   0.936   1.054   0.920   0.863   0.835   0.891   0.938   0.983   0.954   1.036   1.075   1.104   1.020   1.042   1.039   1.016   0.912   0.965   0.873   0.907   0.962   1.033   1.007   1.007   0.990   0.924   0.890   0.911   0.922   0.967   0.926   1.069   0.930   0.863   0.932   0.863   0.933
   271.00    1.093   1.020   1.062   0.980   0.990   1.022   0.959   0.906   0.847   0.891   0.895   1.020   1.001   1.036   1.082   0.946   0.959   1.101   1.003   0.994   0.933   0.927   0.861   0.966   1.028   1.045   1.058   0.868   0.920   0.892   1.005   0.969   0.924   0.981   1.050   1.046   0.981   0.912   0.910   0.880   0.844
   261.00    1.038   0.957   1.040   0.984   0.938   1.063   0.996   0.912   0.895   0.890   0.988   1.065   1.070   1.058   1.120   1.052   0.966   0.952   1.088   1.025   0.925   0.896   0.911   1.043   1.005   1.034   0.982   0.964   0.921   0.993   1.046   1.016   1.010   1.070   1.108   1.026   0.938   0.921   0.867   0.866   0.920
   251.00    1.002   0.941   0.964   1.076   1.010   1.011   0.929   0.815   0.809   0.973   0.990   1.060   1.012   1.019   1.071   1.109   1.022   0.941   1.016   0.980   0.890   1.048   0.968   0.995   0.971   1.070   1.117   0.953   0.941   1.093   1.044   0.942   1.051   1.070   1.127   0.952   0.908   0.936   0.936   0.922   0.875
   241.00    0.940   0.991   1.034   1.014   1.136   0.980   0.901   0.890   0.922   0.959   0.970   1.057   0.954   0.966   0.981   0.975   0.963   0.955   1.000   1.080   0.911   1.007   0.981   0.968   1.030   0.961   0.967   0.892   0.964   0.975   0.994   0.887   1.030   1.028   1.070   0.934   0.909   0.944   0.954   0.993   0.927
   231.00    1.033   1.025   1.031   1.021   1.038   0.983   0.980   0.853   0.953   0.874   0.896   0.979   1.009   1.053   1.046   0.996   0.957   1.050   0.929   1.052   1.091   1.006   1.009   1.065   1.083   0.922   0.924   0.896   0.912   0.900   0.909   0.929   1.013   0.914   0.950   0.970   0.904   1.041   1.007   1.092   1.005
   221.00    1.066   0.970   0.971   1.007   0.932   0.961   0.893   0.945   0.959   0.941   0.990   0.957   1.030   1.070   1.083   0.981   0.921   1.025   0.935   0.984   1.129   1.086   1.038   1.061   1.061   1.002   0.942   0.988   0.911   0.955   0.957   1.064   0.948   1.040   0.984   0.848   0.950   0.995   1.068   1.112   1.031
   211.00    1.056   0.987   0.953   1.044   0.967   0.956   0.866   0.960   0.958   0.974   0.977   1.000   1.038   1.093   0.966   0.960   0.954   1.001   0.906   0.975   1.098   1.198   1.094   1.023   0.973   1.006   0.993   1.022   0.968   1.019   0.991   1.088   1.023   0.921   1.051   0.961   0.974   1.029   1.063   1.052   1.029
   201.00    1.084   1.014   0.952   0.942   0.878   0.863   0.928   0.962   0.955   0.924   0.929   0.910   1.000   1.013   1.004   0.958   1.016   0.967   0.897   0.976   1.107   1.150   1.167   1.138   1.066   1.008   1.061   1.020   0.916   0.914   0.964   0.985   0.970   0.932   1.018   0.948   1.036   1.037   1.034   1.150   1.094
   191.00    1.030   0.997   0.944   0.826   0.839   0.817   0.888   0.875   0.918   0.881   0.915   0.958   0.971   1.038   0.932   1.059   1.024   0.959   0.924   0.950   1.094   1.120   1.127   0.995   1.121   1.074   1.083   0.945   0.914   0.827   1.001   0.927   0.927   0.906   0.995   0.873   0.953   1.014   1.019   1.085   1.113
   181.00    1.038   1.038   1.006   0.882   0.945   0.899   0.861   0.812   0.838   0.972   0.951   0.963   0.955   0.980   1.021   1.031   1.093   0.922   0.901   0.893   1.024   1.084   1.021   0.925   1.103   1.118   1.035   0.942   0.856   0.948   1.039   0.917   0.857   0.964   0.923   0.997   0.921   1.030   1.116   1.126   1.170
   171.00    1.023   1.041   0.974   0.996   0.966   0.887   0.765   0.817   0.827   0.920   0.986   1.017   1.015   0.904   0.986   0.955   1.069   1.008   0.975   0.943   0.911   0.939   0.937   0.944   1.020   1.117   1.003   0.953   0.898   0.822   0.955   0.855   0.896   0.864   0.929   0.969   0.912   1.035   1.117   1.023   1.005
   161.00    0.871   0.941   0.985   0.986   0.896   0.899   0.966   0.868   0.910   0.913   0.993   0.971   1.095   0.943   0.915   0.975   0.869   1.039   0.959   0.886   0.960   1.003   0.892   1.023   1.056   1.087   0.932   0.852   0.955   0.883   1.000   0.916   0.844   0.901   0.966   1.020   0.975   1.040   1.032   0.907   0.947
   151.00    0.983   0.978   1.008   1.077   0.972   0.836   1.037   0.934   0.935   1.094   0.999   1.002   1.027   0.991   0.962   0.935   0.945   0.980   0.915   0.947   0.958   1.002   0.948   0.874   0.947   1.007   0.905   0.914   0.984   1.032   0.928   0.957   0.903   0.917   0.944   1.111   1.105   1.075   0.971   0.966   0.998
   141.00    0.939   1.033   1.049   1.144   1.068   0.908   0.964   1.094   0.924   1.007   0.998   0.989   0.938   0.933   0.978   0.928   1.024   0.969   0.944   0.919   1.019   1.006   0.925   0.820   0.898   0.959   0.899   0.992   0.993   0.989   0.886   0.931   1.002   0.962   0.986   1.082   0.976   0.969   0.982   0.925   1.047
   131.00    0.918   1.022   0.922   1.017   0.915   0.891   0.996   1.032   0.961   1.056   0.993   0.998   0.960   0.970   0.975   0.963   1.109   1.028   0.973   0.911   0.911   1.032   0.846   0.799   0.838   0.919   0.885   0.911   0.966   1.015   0.918   0.881   0.886   0.907   0.976   0.971   0.958   0.945   1.017   1.034   0.953
   121.00    0.854   0.887   0.924   0.930   0.876   0.863   0.989   0.980   0.892   1.002   1.040   1.033   1.039   0.985   0.971   1.043   1.037   0.995   1.050   0.986   0.929   0.942   0.888   0.816   0.829   0.824   0.837   0.892   0.978   1.012   0.983   0.860   0.913   1.075   0.928   0.998   1.001   0.944   0.890   0.993   1.040
   111.00    0.854   0.863   0.947   0.992   0.902   0.916   0.920   0.998   1.025   1.010   1.059   0.959   1.008   0.969   1.011   1.113   1.106   1.008   0.963   0.944   0.888   0.969   0.863   0.941   0.818   0.873   0.869   0.965   0.912   0.929   0.909   0.825   0.949   1.007   0.906   0.967   1.067   0.881   0.838   0.961   1.047
   101.00    0.851   0.830   0.951   0.903   0.905   0.948   0.921   1.028   1.014   1.005   0.980   1.041   1.098   1.100   1.038   1.088   1.103   0.934   1.026   0.890   0.934   1.015   0.850   0.850   0.894   0.964   0.877   0.943   1.055   0.954   0.949   0.940   0.997   0.935   0.979   0.966   1.023   0.921   0.902   1.005   1.015
    91.00    0.907   0.845   1.022   1.156   1.035   0.864   0.982   1.008   1.081   0.966   0.961   0.997   0.997   1.013   1.069   1.032   1.019   0.930   0.933   0.916   0.975   1.013   0.886   0.951   0.894   1.007   0.921   1.067   1.064   0.908   0.947   1.016   0.930   0.960   0.943   1.021   1.040   1.023   0.861   0.938   0.960
    81.00    0.908   0.927   0.969   1.158   1.070   1.014   1.021   1.071   1.050   0.985   1.019   0.925   0.989   1.017   1.130   1.017   0.972   0.979   0.986   0.969   1.052   0.992   0.900   0.956   0.857   0.915   1.036   0.982   0.868   0.922   0.891   0.946   0.917   0.902   0.866   0.961   1.035   0.944   0.827   0.875   0.967
    71.00    0.986   0.949   1.013   1.100   1.064   0.995   1.076   1.129   0.957   1.027   0.958   1.020   0.952   1.046   0.968   1.047   0.988   1.001   1.015   1.015   0.876   0.827   0.906   0.948   0.884   0.922   0.924   0.929   0.974   0.938   1.020   0.950   0.851   0.890   0.962   0.915   0.945   0.978   0.892   0.959   1.060
    61.00    0.988   1.038   0.982   1.023   1.078   1.112   0.989   1.189   1.106   0.984   1.003   1.007   0.980   0.945   0.939   0.960   0.990   1.043   1.154   0.959   0.798   0.849   0.875   0.924   0.961   0.889   0.923   0.910   0.974   0.946   0.976   1.040   0.986   0.938   0.915   1.026   0.989   1.037   0.945   0.903   1.050
    51.00    0.969   0.954   0.968   1.020   1.115   1.078   1.052   1.023   1.119   1.022   1.022   1.025   0.948   0.942   0.890   0.966   1.008   1.032   1.117   0.996   0.855   0.878   0.887   0.959   0.973   0.899   0.918   0.877   0.919   0.910   0.919   0.978   0.974   0.944   0.997   0.942   1.013   1.043   0.888   0.955   1.002
    41.00    0.963   0.922   0.930   0.950   1.115   1.162   1.158   1.020   1.041   1.075   1.113   1.032   0.980   1.025   0.944   0.935   0.887   1.032   0.970   0.990   0.895   0.861   0.811   0.855   0.911   0.865   0.968   0.844   0.831   0.917   0.951   1.041   1.006   1.016   0.954   0.968   1.047   1.054   0.958   0.882   0.934
    31.00    0.974   0.919   0.919   0.930   1.043   1.161   1.152   1.051   0.993   1.123   1.161   1.044   0.971   0.916   1.035   0.929   0.945   1.016   0.985   0.898   0.864   0.930   0.938   0.857   0.885   0.934   0.939   0.931   0.832   0.892   0.982   0.947   0.918   0.918   0.978   0.933   0.932   1.054   1.027   1.066   1.086
    21.00    0.990   0.869   0.954   0.935   0.987   1.089   1.083   1.025   0.965   1.099   1.103   1.031   1.026   1.004   1.105   1.040   1.004   1.031   0.953   0.856   0.983   0.880   0.859   0.914   0.934   0.967   1.023   1.054   0.877   0.928   0.962   1.021   1.014   1.019   1.091   1.008   0.983   1.085   1.093   0.957   1.047
    11.00    0.929   0.863   1.025   0.966   1.007   1.058   0.983   0.885   1.033   1.045   1.097   1.111   1.089   1.057   1.091   0.991   0.954   1.017   1.072   0.930   0.899   0.932   0.922   0.830   0.947   1.001   1.070   1.171   0.974   0.891   0.907   1.009   1.009   0.985   1.036   1.068   0.930   1.077   1.115   0.960   0.958
     1.00    0.974   0.920   0.990   1.025   0.978   1.050   0.988   0.975   1.015   1.085   1.036   1.066   1.014   0.942   1.112   0.950   0.971   0.942   0.964   0.906   0.878   0.946   0.866   0.856   0.871   0.969   1.037   1.041   1.073   0.932   0.941   0.961   0.991   1.032   1.070   1.032   0.964   0.969   1.013   0.983   0.904

   Height   Standard deviation at grid points for the w component:
   301.00    1.047   0.891   0.986   0.980   1.059   1.029   0.986   0.912   0.968   0.952   0.949   0.921   0.903   1.012   0.995   0.911   0.873   0.983   1.045   1.018   0.900   0.966   0.953   0.954   0.953   0.993   0.983   0.914   0.970   0.964   0.861   0.921   0.946   0.884   0.934   0.931   0.869   0.938   0.944   0.845   0.885
   291.00    1.011   0.948   1.034   1.045   1.102   0.985   0.888   0.956   0.963   0.962   0.912   0.932   0.891   1.056   0.974   0.961   0.824   0.937   1.012   1.007   0.883   0.862   1.011   0.946   0.917   0.978   0.956   0.960   1.021   0.984   1.026   0.886   0.856   0.901   0.959   0.928   0.917   0.918   0.928   0.938   0.862
   281.00    1.000   1.107   1.069   1.045   1.057   0.948   0.861   0.903   0.908   0.865   0.885   0.942   1.004   1.041   1.081   0.975   0.933   0.903   0.882   0.917   0.878   0.936   0.875   0.912   0.921   0.941   0.882   0.876   0.940   1.020   0.984   0.988   0.923   0.919   0.937   0.913   0.999   0.978   0.919   1.018   0.971
   271.00    0.954   1.000   1.070   1.073   0.942   0.821   0.832   0.884   0.934   0.858   0.859   0.957   0.925   1.014   1.026   1.036   1.000   0.882   0.886   0.851   0.880   0.911   0.960   0.804   0.908   0.902   0.950   0.899   1.003   0.931   0.927   1.038   0.931   0.972   0.848   0.904   1.024   1.058   0.946   0.936   0.932
   261.00    0.901   0.908   0.975   1.038   0.940   0.811   0.904   0.836   0.914   0.906   0.864   0.949   0.903   0.951   1.018   1.088   1.012   0.995   0.962   0.903   0.925   0.850   0.871   0.904   0.951   0.818   0.892   0.943   0.954   0.985   0.992   0.956   1.008   0.964   0.860   0.877   1.067   0.915   1.047   1.014   0.907
   251.00    0.902   0.961   0.897   0.908   0.995   0.841   0.944   0.828   0.844   0.935   0.903   0.897   0.948   0.889   0.979   1.022   1.105   1.102   0.942   0.957   0.911   0.870   0.804   0.876   0.946   0.896   0.843   0.877   1.001   0.993   1.040   0.985   0.965   0.906   0.928   0.908   1.018   1.107   1.034   1.067   0.950
   241.00    0.934   0.969   0.931   0.967   0.899   0.932   0.957   0.873   0.885   0.885   0.872   0.963   0.981   0.890   1.027   1.007   1.005   1.001   0.982   1.021   0.900   0.946   1.034   0.906   0.882   0.922   0.914   0.962   0.989   0.936   0.891   1.003   0.973   0.897   0.982   1.023   1.048   1.041   1.061   1.054   0.947
   231.00    0.922   1.004   0.994   0.919   0.864   1.029   0.940   0.797   0.926   0.959   0.835   0.897   0.940   0.951   0.914   0.939   0.839   0.959   1.032   0.855   0.900   0.904   0.885   0.914   0.892   0.868   0.899   0.920   0.878   0.825   0.839   0.984   0.925   0.864   0.992   0.961   0.972   1.034   1.076   0.959   0.851
   221.00    0.905   0.993   1.043   0.849   0.858   0.997   0.985   0.840   0.846   0.961   0.865   0.823   0.878   0.862   0.939   0.837   0.836   0.888   0.920   0.927   0.946   0.953   0.889   0.823   0.892   0.893   0.847   0.846   0.884   0.853   0.853   0.930   0.881   0.947   0.939   0.973   1.062   1.085   1.050   0.949   0.955
   211.00    0.830   0.962   0.983   1.000   0.959   0.903   0.964   0.950   0.947   0.953   0.923   0.823   0.792   0.807   0.852   0.925   0.834   0.848   0.842   0.898   0.911   0.932   0.881   0.844   0.861   0.875   0.847   0.863   0.941   0.829   0.847   0.915   0.852   0.857   0.999   0.974   1.028   1.027   1.067   1.023   0.994
   201.00    0.872   0.950   0.916   0.899   0.997   0.876   1.002   0.963   0.878   0.982   0.948   0.795   0.853   0.862   0.867   0.985   0.920   0.858   0.803   0.926   0.839   0.917   0.845   0.801   0.865   0.890   0.979   1.053   0.947   0.974   0.887   0.829   0.863   0.866   0.914   0.965   0.960   1.012   1.072   1.015   1.049
   191.00    0.902   0.964   0.855   0.936   0.887   1.000   1.003   0.936   0.938   1.025   0.954   0.824   0.846   0.907   0.826   0.884   0.941   0.914   0.871   0.988   1.016   0.933   0.964   0.876   0.999   0.939   1.042   1.000   0.929   0.911   0.956   0.901   0.889   0.895   0.959   0.956   0.924   0.993   1.089   1.041   1.017
   181.00    1.020   0.985   0.910   0.962   0.892   0.947   0.979   0.868   0.896   0.940   0.904   0.911   0.920   0.911   0.969   0.911   0.904   0.783   0.901   0.869   0.961   0.913   0.946   0.889   0.882   0.959   1.027   0.994   0.918   0.905   1.014   0.863   0.863   0.929   0.971   0.900   0.928   1.047   1.048   1.056   1.091
   171.00    1.046   1.009   0.950   0.938   0.926   1.012   0.989   0.905   0.844   0.825   0.836   0.865   0.902   0.916   0.870   0.923   0.971   0.808   1.000   0.949   1.007   0.939   0.951   0.876   0.913   0.968   1.046   1.012   0.905   0.877   0.935   0.921   0.899   0.910   0.973   0.975   0.971   0.954   1.019   1.078   0.996
   161.00    1.054   1.050   0.988   0.872   0.991   0.970   0.929   0.899   0.945   0.943   0.997   0.897   0.914   0.862   0.870   0.892   0.953   0.964   0.855   1.064   1.047   0.973   0.980   0.960   0.824   0.919   0.949   0.908   0.937   0.958   0.899   0.870   0.957   0.861   0.879   0.978   1.004   0.979   0.977   1.038   0.986
   151.00    1.029   0.929   0.983   0.810   0.917   1.009   0.902   1.011   0.932   0.913   0.942   0.945   0.843   0.823   0.832   0.778   0.889   0.968   0.937   1.027   0.958   1.038   0.968   0.998   0.862   0.892   0.895   1.040   1.085   0.929   0.908   0.920   0.884   0.857   0.923   0.937   0.958   0.941   0.924   0.982   1.025
   141.00    1.026   0.938   0.979   0.866   0.866   1.054   0.964   0.926   0.998   0.894   0.898   0.919   0.770   0.790   0.840   0.952   0.975   0.963   1.020   1.062   0.936   0.945   0.880   1.005   0.905   0.856   0.879   0.999   0.992   0.934   0.822   0.951   0.982   0.948   0.917   0.977   0.948   0.937   0.945   1.035   1.013
   131.00    0.949   1.059   0.933   0.942   0.952   1.003   0.962   0.889   0.912   0.899   0.903   0.913   0.905   0.760   0.919   0.983   0.991   0.960   0.934   0.982   0.903   0.814   0.905   0.963   0.981   0.853   0.839   0.934   0.979   0.907   0.856   0.976   0.962   0.954   0.923   0.972   0.952   1.022   1.019   1.065   1.064
   121.00    0.997   0.965   0.955   1.096   1.049   0.992   1.008   0.968   0.921   0.952   0.930   0.848   0.843   0.881   0.961   1.019   1.056   1.012   0.915   0.915   0.867   0.759   0.908   0.896   0.955   0.908   0.892   0.949   0.951   0.958   0.866   0.906   0.893   0.864   0.878   0.878   0.991   1.026   1.046   1.130   1.022
   111.00    0.906   0.887   0.931   1.072   1.043   1.018   1.060   1.001   0.926   0.906   0.919   0.861   0.901   0.977   1.000   1.020   1.063   0.967   0.955   0.884   0.882   0.918   0.888   0.972   0.912   0.907   0.951   0.941   0.859   0.934   0.923   0.846   0.950   0.896   0.848   0.895   1.022   1.111   1.133   1.064   1.030
   101.00    0.962   0.959   0.942   1.040   1.072   1.008   0.973   0.945   0.926   0.852   0.949   0.866   0.831   0.847   0.843   0.966   0.967   0.995   1.002   0.948   0.920   0.902   0.829   0.864   0.992   0.976   0.959   1.032   0.893   0.909   0.855   0.874   0.949   0.917   0.848   0.973   1.020   1.141   1.103   1.089   1.044
    91.00    0.956   0.927   0.974   1.054   1.025   1.089   1.016   1.028   0.984   0.974   0.860   0.855   0.896   0.850   0.818   0.941   1.018   1.010   0.958   0.957   0.894   0.903   0.866   0.859   0.905   0.995   0.865   0.921   0.823   0.910   0.816   0.911   0.887   0.887   0.839   0.937   1.013   1.069   1.076   0.911   1.026
    81.00    1.045   1.069   1.017   1.080   1.044   1.092   1.013   0.891   0.869   0.903   0.953   0.933   0.878   0.895   0.916   0.911   0.921   0.913   0.908   0.936   0.932   0.891   0.878   0.844   0.873   0.989   0.941   0.877   0.805   0.877   0.878   0.915   0.855   0.817   0.929   0.971   1.004   1.063   0.977   0.974   1.039
    71.00    1.115   1.121   0.947   0.981   0.966   1.068   0.977   1.012   0.927   0.850   0.946   0.847   0.913   0.947   0.902   0.953   0.935   0.960   0.947   0.921   0.983   1.014   1.034   0.825   0.849   0.939   0.948   0.980   0.867   0.905   0.848   0.868   0.822   0.856   0.836   0.950   0.924   0.962   1.106   0.898   0.941
    61.00    1.023   0.943   0.968   0.937   0.892   0.942   1.042   1.009   1.008   0.912   0.976   0.947   0.850   0.937   0.990   0.962   0.983   0.930   1.037   0.979   1.075   1.058   0.897   0.806   0.873   0.919   0.919   0.890   0.909   0.879   0.816   0.842   0.860   0.906   0.863   0.950   1.024   0.978   0.981   0.966   0.906
    51.00    1.025   0.903   0.939   0.774   0.866   0.989   0.930   1.128   1.184   0.990   0.954   0.932   0.928   0.997   0.999   1.052   0.978   1.057   1.089   1.043   1.032   0.998   0.986   0.825   0.939   0.887   0.946   0.932   0.888   0.987   0.815   0.891   0.841   0.880   0.968   0.907   0.969   0.967   0.877   0.936   0.970
    41.00    0.928   0.974   0.996   0.892   0.895   0.966   1.075   1.094   1.146   1.080   0.985   0.928   1.009   1.007   1.071   0.965   1.021   1.134   0.993   1.031   1.080   1.006   1.007   0.918   0.999   1.001   0.987   0.986   0.922   0.931   0.939   0.875   0.916   0.971   0.980   0.873   0.961   0.918   0.831   0.895   1.026
    31.00    0.919   0.899   0.946   0.831   0.911   1.040   1.018   1.100   1.088   1.125   0.995   1.035   0.937   0.995   1.020   0.879   0.926   1.020   0.995   0.975   1.044   1.020   0.912   0.986   0.977   0.907   0.959   0.997   0.841   0.916   0.958   0.895   0.910   0.984   1.073   0.949   1.022   0.947   0.879   0.854   1.010
    21.00    0.915   0.895   0.756   0.862   0.985   1.057   0.984   1.067   1.051   1.018   0.985   0.998   0.946   1.021   1.024   1.003   0.963   0.978   0.953   1.014   1.070   0.995   1.007   0.968   0.961   0.906   0.975   0.970   0.853   0.912   1.008   0.893   0.930   0.971   0.972   1.020   1.033   0.991   0.905   0.816   0.925
    11.00    0.961   0.874   0.739   0.811   0.963   0.973   1.015   1.169   1.085   1.039   0.822   0.958   0.962   1.021   0.909   1.073   1.083   1.050   1.041   0.967   0.921   0.977   0.962   0.888   0.946   0.991   0.977   0.912   0.873   0.930   0.962   0.909   0.962   1.039   1.001   0.923   0.995   0.961   0.981   0.975   0.931
     1.00    0.974   0.836   0.798   0.897   0.946   0.977   0.940   1.042   1.111   0.936   0.917   0.964   0.914   0.960   0.927   1.049   1.114   1.018   0.967   0.914   0.935   1.043   1.026   0.945   0.988   1.025   0.985   0.877   0.924   0.872   0.901   0.941   0.912   1.024   0.925   0.907   0.975   1.003   0.993   0.978   0.904

   Mean standard deviation across all grid points:
      u component:    0.953 m/s
      v component:    0.976 m/s
      w component:    0.945 m/s


U-component (X) statistics from the interpolated hub point:

   Mean =  10.0066 m/s
   TI   =  10.1378 %


Processing complete.  13.734 CPU seconds used.
