
This summary file was generated by TurbSim (from OpenFAST-v3.4.1) on 25-Nov-2024 at 22:20:58.


Runtime Options:

      2029  Random seed #1
         0  Random seed #2
         F  Output binary HH turbulence parameters?
         F  Output formatted turbulence parameters?
         F  Output AeroDyn HH files?
         T  Output AeroDyn FF files?
         F  Output BLADED FF files?
         F  Output tower data?
         F  Output HAWC FF files?
         F  Output formatted FF files?
         T  Output coherent turbulence time step file?
 0 -  NONE  IEC turbulence models scaled to exact specified standard deviation


Turbine/Model Specifications:

        31  Vertical grid-point matrix dimension
        41  Horizontal grid-point matrix dimension
     0.100  Time step [seconds]
   200.000  Analysis time [seconds]
   200.000  Usable output time [seconds]
   151.000  Hub height [m]
   300.000  Grid height [m]
   600.000  Grid width [m]
     0.000  Vertical flow angle [degrees]
     0.000  Horizontal flow angle [degrees]


Meteorological Boundary Conditions:

    IECVKM  IEC von Karman spectral model
         1  IEC standard: IEC 61400-1 Ed. 2: 1999
    10.000  Percent turbulence intensity, IEC 61400-1 Ed. 2: 1999
       NTM  IEC Normal Turbulence Model
       N/A  IEC Extreme Turbulence Model (ETM) "c" parameter [m/s]
       PL   Wind profile type
   150.000  Reference height [m]
    10.000  Reference wind speed [m/s]
       N/A  Jet height [m]
     0.100  Power law exponent
     0.030  Surface roughness length [m]


Non-IEC Meteorological Boundary Conditions:

       N/A  Site latitude [degrees]
       N/A  Gradient Richardson number
       N/A  Friction or shear velocity [m/s]
       N/A  Mixing layer depth [m]
       N/A  Mean hub u'w' Reynolds stress
       N/A  Mean hub u'v' Reynolds stress
       N/A  Mean hub v'w' Reynolds stress


Spatial Coherence Models:

       IEC  u-component coherence model
       IEC  v-component coherence model
       IEC  w-component coherence model
(   12.000, 0.659E-03)  u-component coherence parameters
(   12.000, 0.659E-03)  v-component coherence parameters
(   12.000, 0.659E-03)  w-component coherence parameters
       N/A  Coherence exponent


You have requested that the following file(s) be generated:

   ./TurbulentWind_20WT/FOWTs/Wind\InflowWind_High_WT5.bts (AeroDyn/TurbSim full-field wind file)


Turbulence Simulation Scaling Parameter Summary:

   Turbulence model used                            =  IEC von Karman
   Turbulence characteristic                        =  User-specified
   IEC standard                                     =  IEC 61400-1 Ed. 2: 1999
   Mean wind speed at hub height                    =   10.007 m/s
   Characteristic value of standard deviation       =    1.001 m/s
   Turbulence scale                                 =   21.000 m
   Isotropic integral scale                         =   73.500 m
   Characteristic value of hub turbulence intensity =   10.000%
   Gradient Richardson number                       =    0.000

   Wind profile type                                =  Power law
   Power law exponent                               =    0.100
   Mean shear across rotor disk                     =    0.016 (m/s)/m
   Assumed rotor diameter                           =  300.000 m
   Surface roughness length                         =    0.030 m

   Nyquist frequency of turbulent wind field        =    5.000 Hz

   Number of time steps in the FFT                  =     2600
   Number of time steps output                      =     2600
   Number of points simulated                       =     1271


Mean Flow Angles:

   Vertical   =   0.0 degrees
   Horizontal =   0.0 degrees

Mean Wind Speed Profile:

   Height    Wind Speed   Horizontal Angle  Vertical Angle  U-comp (X)   V-comp (Y)   W-comp (Z)
     (m)        (m/s)         (degrees)       (degrees)       (m/s)        (m/s)        (m/s)   
   ------    ----------   ----------------  --------------  ----------   ----------   ----------
    301.0       10.72            0.00            0.00         10.72         0.00         0.00
    291.0       10.69            0.00            0.00         10.69         0.00         0.00
    281.0       10.65            0.00            0.00         10.65         0.00         0.00
    271.0       10.61            0.00            0.00         10.61         0.00         0.00
    261.0       10.57            0.00            0.00         10.57         0.00         0.00
    251.0       10.53            0.00            0.00         10.53         0.00         0.00
    241.0       10.49            0.00            0.00         10.49         0.00         0.00
    231.0       10.44            0.00            0.00         10.44         0.00         0.00
    221.0       10.40            0.00            0.00         10.40         0.00         0.00
    211.0       10.35            0.00            0.00         10.35         0.00         0.00
    201.0       10.30            0.00            0.00         10.30         0.00         0.00
    191.0       10.24            0.00            0.00         10.24         0.00         0.00
    181.0       10.19            0.00            0.00         10.19         0.00         0.00
    171.0       10.13            0.00            0.00         10.13         0.00         0.00
    161.0       10.07            0.00            0.00         10.07         0.00         0.00
    151.0       10.01            0.00            0.00         10.01         0.00         0.00
    141.0        9.94            0.00            0.00          9.94         0.00         0.00
    131.0        9.87            0.00            0.00          9.87         0.00         0.00
    121.0        9.79            0.00            0.00          9.79         0.00         0.00
    111.0        9.70            0.00            0.00          9.70         0.00         0.00
    101.0        9.61            0.00            0.00          9.61         0.00         0.00
     91.0        9.51            0.00            0.00          9.51         0.00         0.00
     81.0        9.40            0.00            0.00          9.40         0.00         0.00
     71.0        9.28            0.00            0.00          9.28         0.00         0.00
     61.0        9.14            0.00            0.00          9.14         0.00         0.00
     51.0        8.98            0.00            0.00          8.98         0.00         0.00
     41.0        8.78            0.00            0.00          8.78         0.00         0.00
     31.0        8.54            0.00            0.00          8.54         0.00         0.00
     21.0        8.22            0.00            0.00          8.22         0.00         0.00
     11.0        7.70            0.00            0.00          7.70         0.00         0.00
      1.0        6.06            0.00            0.00          6.06         0.00         0.00


Harvested Random Seeds after Generation of the Random Numbers:

   1430102936 Harvested seed # 1
   1971657505 Harvested seed # 2


Hub-Height Simulated Turbulence Statistical Summary:

   Type of Wind        Min (m/s)   Mean (m/s)    Max (m/s)  Sigma (m/s)       TI (%)
   ----------------    ---------   ----------    ---------  -----------       ------
   Longitudinal (u)         7.10        10.01        13.16        1.055       10.546
   Lateral (v)             -2.70        -0.00         3.00        0.982        9.812
   Vertical (w)            -2.79         0.00         3.95        0.983        9.826
   U component              7.10        10.01        13.16        1.055       10.546
   V component             -2.70        -0.00         3.00        0.982        9.812
   W component             -2.79         0.00         3.95        0.983        9.826
   Horizontal (U&V)         7.11        10.05        13.22        1.068       10.625
   Total                    7.17        10.10        13.28        1.053       10.426

                       Min Reynolds     Mean Reynolds    Max Reynolds    Correlation
   Product             Stress (m/s)^2   Stress (m/s)^2   Stress (m/s)^2  Coefficient
   ----------------    --------------   --------------   --------------  -----------
   u'w'                     -8.430            -0.122             5.080        -0.117
   u'v'                     -6.190             0.053             5.485         0.051
   v'w'                     -5.479            -0.044             4.232        -0.046


   Friction Velocity (Ustar)  =      0.349 m/s
   Maximum Instantaneous TKE  =      9.623 (m/s)^2
   Maximum Instantaneous CTKE =      4.254 (m/s)^2


Grid Point Variance Summary:

   Y-coord -300.00 -285.00 -270.00 -255.00 -240.00 -225.00 -210.00 -195.00 -180.00 -165.00 -150.00 -135.00 -120.00 -105.00  -90.00  -75.00  -60.00  -45.00  -30.00  -15.00    0.00   15.00   30.00   45.00   60.00   75.00   90.00  105.00  120.00  135.00  150.00  165.00  180.00  195.00  210.00  225.00  240.00  255.00  270.00  285.00  300.00

   Height   Standard deviation at grid points for the u component:
   301.00    1.065   0.977   0.911   0.884   0.836   0.884   0.820   0.909   0.797   0.815   0.741   0.791   0.827   0.956   0.855   1.077   1.217   1.303   1.166   1.154   1.055   0.965   1.025   1.008   0.943   0.980   0.857   0.875   0.860   0.881   0.879   1.006   0.842   0.886   1.059   1.036   1.101   0.833   0.985   0.952   0.948
   291.00    0.938   0.957   0.915   0.735   0.850   0.850   0.929   0.893   0.775   0.732   0.832   0.851   0.892   0.958   1.044   1.097   1.154   1.222   1.184   1.098   1.055   1.062   1.079   1.057   0.946   1.006   0.850   0.868   0.930   0.807   0.821   0.858   0.932   0.940   1.017   0.997   1.006   0.883   0.974   0.990   0.977
   281.00    0.819   0.970   0.904   0.787   0.815   0.933   1.004   0.898   0.812   0.721   0.761   0.872   0.854   0.943   1.064   1.086   1.320   1.321   1.312   1.091   1.028   0.992   1.007   1.082   0.962   0.918   0.953   0.980   0.872   0.837   0.894   0.930   0.843   0.959   1.131   1.031   1.131   1.066   1.073   1.010   0.988
   271.00    0.850   0.873   0.831   0.881   0.910   0.972   0.930   0.852   0.782   0.819   0.915   0.808   0.837   0.961   1.004   1.073   1.210   1.280   1.206   1.219   1.057   1.026   1.102   1.081   0.997   1.024   0.994   0.956   0.818   0.956   0.903   0.923   0.989   1.102   1.116   1.126   1.000   1.043   1.089   1.012   1.011
   261.00    0.897   0.808   0.896   0.911   0.982   0.918   0.824   0.773   0.822   0.814   0.803   0.723   0.862   0.908   0.991   1.138   1.212   1.263   1.212   1.165   1.011   1.080   0.987   0.900   0.974   0.995   1.021   0.914   0.924   0.902   0.898   0.917   1.095   1.045   1.059   1.016   0.972   0.977   0.986   1.080   0.963
   251.00    0.811   0.815   0.921   0.901   0.856   0.939   0.837   0.732   0.796   0.789   0.779   0.772   0.815   0.910   1.015   1.144   1.104   1.297   1.257   1.019   0.934   1.015   1.014   0.902   0.883   0.864   0.976   1.014   0.925   0.866   1.059   1.097   1.132   0.999   1.008   0.991   0.983   0.928   0.999   0.943   0.954
   241.00    0.888   0.818   0.917   0.950   0.929   0.899   0.867   0.725   0.811   0.823   0.877   0.864   0.821   1.038   1.099   1.166   1.179   1.391   1.273   0.999   0.931   1.020   1.036   1.016   0.944   1.112   1.100   1.167   1.063   0.929   1.078   1.075   1.018   1.003   0.903   1.061   0.914   1.012   0.998   0.921   0.938
   231.00    0.807   0.794   0.797   0.895   1.060   1.039   0.794   0.798   0.812   0.808   0.854   0.885   0.926   1.114   1.168   1.201   1.317   1.282   1.233   1.089   1.060   1.066   1.016   1.032   1.039   1.198   1.194   1.110   1.025   1.036   1.004   1.078   0.911   0.887   0.965   1.004   1.056   0.874   0.850   0.909   0.913
   221.00    0.828   0.795   0.835   0.901   1.002   1.034   0.869   0.826   0.712   0.762   0.902   0.925   0.996   1.100   1.213   1.207   1.249   1.243   1.196   1.145   1.168   1.099   0.979   0.965   1.119   1.153   1.232   1.082   1.013   1.017   0.959   0.969   0.973   0.809   0.871   1.023   1.005   0.888   0.877   0.860   0.882
   211.00    0.899   0.828   0.800   0.895   1.060   0.975   0.945   0.841   0.719   0.823   0.976   0.928   0.982   1.151   1.161   1.140   1.215   1.133   1.317   1.144   1.047   1.191   0.969   1.104   1.140   1.245   1.222   1.087   0.927   0.892   0.895   0.920   0.987   0.855   0.852   0.969   0.876   0.906   0.933   0.920   0.948
   201.00    0.990   1.002   0.897   0.896   1.087   1.094   0.899   0.780   0.904   0.829   0.879   0.844   1.021   0.997   1.115   1.125   1.223   1.211   1.257   1.343   1.266   1.251   1.109   1.078   1.055   1.142   1.116   1.065   1.014   0.849   0.954   0.916   0.910   0.855   0.799   0.838   0.945   0.985   1.047   1.000   0.983
   191.00    0.929   0.969   1.072   1.058   1.028   0.995   0.966   0.872   0.959   1.006   0.973   0.931   0.966   1.099   0.973   1.039   1.171   1.092   1.329   1.474   1.227   1.209   1.065   1.103   0.954   1.129   1.102   1.073   1.051   0.866   1.003   0.910   0.830   0.724   0.843   0.891   0.920   0.922   0.988   0.972   0.953
   181.00    1.007   0.969   1.046   1.134   1.097   0.914   1.085   0.929   0.853   0.932   1.053   0.866   0.892   1.050   1.040   1.106   1.058   1.128   1.272   1.382   1.246   1.094   0.882   1.059   1.060   1.124   0.983   1.099   1.041   0.926   1.074   0.937   0.865   0.783   0.915   0.793   0.882   0.820   1.009   1.068   0.884
   171.00    1.022   0.976   1.085   1.116   1.102   0.985   0.977   0.970   0.860   0.946   1.011   1.064   0.987   0.982   0.947   1.043   1.006   1.103   1.255   1.258   1.157   1.101   1.002   1.082   0.941   1.136   1.034   1.088   1.065   0.978   0.978   0.998   0.939   0.817   0.890   0.817   0.810   0.890   1.008   1.040   0.825
   161.00    1.008   1.022   0.973   1.063   1.085   1.002   0.995   0.918   0.827   0.947   0.914   0.985   0.985   0.971   0.913   1.009   0.997   1.081   1.137   1.244   1.182   1.054   1.197   1.108   1.126   1.016   1.157   1.049   0.961   0.918   1.004   1.025   0.959   0.927   0.922   0.966   0.803   0.904   0.926   1.002   1.000
   151.00    0.979   1.002   0.927   0.989   1.039   0.901   0.931   0.801   0.937   0.992   0.871   0.950   1.002   1.037   0.910   0.923   1.026   1.111   1.147   1.221   1.055   1.051   1.107   1.132   1.061   1.039   1.032   1.150   0.907   0.864   0.955   0.941   0.886   1.009   1.033   0.940   0.979   0.895   0.909   0.929   0.934
   141.00    1.028   1.088   0.950   0.835   0.965   0.768   0.901   0.922   0.832   0.874   0.872   0.980   0.965   0.971   0.966   0.891   0.933   0.997   1.105   1.108   1.147   1.155   1.034   0.985   1.068   1.086   1.053   1.061   0.866   0.855   0.902   0.921   0.905   0.920   1.019   1.038   0.917   0.893   0.906   0.891   0.922
   131.00    1.028   1.086   0.989   0.859   0.898   0.846   0.841   0.710   0.867   0.890   0.995   1.023   1.030   0.843   0.909   0.944   0.985   1.050   1.100   1.113   1.200   1.154   1.091   0.967   0.945   0.923   1.034   1.058   0.767   0.828   0.912   0.917   0.935   0.999   1.036   1.097   1.034   1.070   1.016   0.811   0.861
   121.00    0.920   0.955   1.030   0.757   0.854   0.928   0.813   0.786   0.788   0.923   0.996   1.029   1.059   0.856   0.958   0.921   1.073   1.066   1.166   1.106   1.130   1.013   0.982   0.909   0.973   0.922   0.870   1.044   0.856   0.908   0.851   0.864   0.960   0.888   0.946   1.030   0.953   1.019   1.021   0.934   0.809
   111.00    0.850   0.900   0.939   0.830   0.963   0.966   0.806   0.763   0.903   0.967   1.081   1.026   0.986   0.915   0.910   0.950   1.048   1.121   1.057   1.074   1.075   1.030   1.060   0.833   0.935   0.923   0.915   0.825   0.831   0.814   0.897   0.913   0.877   0.835   0.940   0.950   0.889   0.923   1.019   0.915   0.765
   101.00    0.799   0.901   0.923   0.805   0.810   0.930   0.869   0.892   0.940   1.041   1.102   0.998   0.924   0.903   0.891   0.911   0.966   1.083   1.090   1.075   0.929   0.960   0.930   0.927   0.849   0.921   0.882   0.693   0.917   0.879   0.848   0.874   0.831   0.901   0.769   0.876   0.840   0.820   0.883   0.849   0.872
    91.00    0.841   0.804   0.877   0.909   0.766   0.952   0.959   0.905   0.877   1.023   0.967   0.975   0.947   0.863   0.881   0.924   0.910   0.998   1.001   1.047   1.020   0.853   0.846   0.889   0.805   0.931   0.876   0.883   0.936   1.000   0.969   0.962   0.892   0.959   0.921   0.917   0.804   0.912   0.877   0.821   0.843
    81.00    0.891   0.881   0.838   0.927   0.880   0.929   0.971   0.820   0.800   0.959   1.118   1.014   0.997   0.867   0.913   1.072   0.949   0.972   0.989   0.925   0.933   0.866   0.820   0.820   0.744   0.839   0.965   1.034   0.963   0.996   1.040   1.068   0.916   1.010   0.942   0.878   0.829   0.880   0.829   0.788   0.799
    71.00    0.837   0.738   0.854   0.889   0.872   0.841   0.880   0.801   0.882   0.861   1.045   0.800   0.941   0.806   0.924   1.043   1.031   0.971   0.948   0.889   0.861   0.870   0.823   0.860   0.934   0.921   1.036   0.988   1.068   1.068   1.130   1.060   1.078   0.971   0.996   0.995   0.802   0.856   0.720   0.771   0.799
    61.00    0.728   0.787   0.850   0.869   0.862   0.879   0.819   0.908   0.980   0.896   1.007   0.887   0.934   1.010   0.893   0.990   0.990   0.923   0.840   0.933   0.902   0.894   0.909   0.929   0.844   0.933   0.955   1.020   1.148   1.155   1.093   0.967   0.940   0.971   0.969   1.053   0.905   0.853   0.741   0.819   0.844
    51.00    0.768   0.844   0.825   0.830   0.846   0.800   0.826   0.801   0.954   0.968   1.087   0.924   0.783   1.007   0.953   0.910   0.989   0.924   0.790   0.851   0.932   0.882   0.981   0.913   0.917   0.925   0.873   0.988   1.122   1.158   1.102   0.913   0.893   0.892   0.929   0.972   1.012   0.875   0.825   0.871   0.905
    41.00    0.892   0.866   0.845   0.780   0.845   0.812   0.886   0.794   0.885   0.918   1.039   0.847   0.831   1.004   1.005   0.886   0.838   0.874   1.006   1.037   1.145   0.885   0.905   0.931   0.916   0.882   0.917   0.953   0.930   1.112   1.146   1.013   0.855   0.963   1.017   0.998   1.009   0.860   0.868   0.849   0.860
    31.00    0.805   0.893   0.821   0.745   0.838   0.939   0.976   1.021   0.876   0.976   1.021   0.908   0.953   1.052   0.926   0.868   0.832   0.837   0.955   1.054   0.987   0.933   0.746   0.882   0.881   0.820   0.876   0.916   0.940   1.072   1.084   1.049   0.949   0.992   1.005   0.909   0.889   0.807   0.858   0.861   0.884
    21.00    0.890   0.857   0.841   0.788   0.863   0.966   0.937   1.052   0.962   1.009   0.945   0.884   1.035   1.014   1.010   0.871   0.906   0.852   0.850   0.876   0.911   0.833   0.862   0.951   0.987   0.992   0.962   0.990   1.071   1.028   0.999   1.016   0.926   1.025   0.954   0.964   0.957   0.916   0.993   0.947   0.924
    11.00    0.854   0.853   1.003   1.010   0.981   1.001   1.120   1.113   0.957   0.931   0.871   0.922   1.049   0.993   0.914   1.006   1.021   0.793   0.800   0.881   0.884   0.864   0.898   0.951   1.006   1.011   0.927   1.138   1.053   1.071   1.135   1.093   0.963   1.008   0.902   0.939   0.897   0.844   1.052   1.032   0.892
     1.00    0.963   1.048   1.084   0.964   0.911   0.954   1.053   1.049   0.839   0.874   0.835   0.927   0.947   0.916   0.910   1.021   1.024   0.912   0.903   0.857   1.019   0.942   0.907   0.966   1.029   0.991   1.034   1.064   0.988   1.043   1.073   1.202   1.063   0.974   0.987   1.018   0.884   0.819   0.923   1.041   0.889

   Height   Standard deviation at grid points for the v component:
   301.00    0.905   0.895   0.943   0.984   0.933   0.957   0.861   0.843   0.966   1.012   0.786   0.883   1.017   0.952   1.098   0.962   0.947   0.985   0.937   1.003   1.063   0.926   0.897   0.939   0.862   0.841   0.940   1.111   1.124   1.000   0.918   0.920   0.901   0.839   0.881   0.938   0.952   0.995   0.945   0.972   1.029
   291.00    0.904   0.856   0.922   0.958   0.912   0.891   0.919   0.916   0.954   0.947   0.948   0.936   0.990   0.922   1.008   0.990   1.018   1.008   0.941   1.027   0.952   0.870   0.940   0.935   0.969   0.917   0.903   1.016   1.004   1.044   1.075   0.964   0.932   0.902   0.849   0.857   0.889   0.934   0.944   0.887   0.943
   281.00    0.887   0.901   0.858   0.896   0.942   0.969   1.025   0.920   0.894   0.927   0.922   0.947   0.959   0.873   0.927   1.015   0.960   0.924   0.901   0.917   0.906   0.959   0.863   0.940   0.882   0.983   0.857   0.910   0.991   0.974   1.036   0.979   0.925   0.974   0.867   0.819   0.891   0.939   0.902   0.860   0.952
   271.00    0.969   0.941   0.909   0.868   0.864   0.889   0.919   0.845   0.831   0.937   0.959   0.937   0.946   0.987   0.972   0.976   0.944   0.806   0.877   0.867   0.879   0.948   0.918   0.952   0.878   0.875   0.918   0.925   0.962   0.990   0.970   0.959   1.022   0.908   0.850   0.907   0.860   0.872   0.894   0.871   0.941
   261.00    1.013   0.847   0.876   0.934   0.903   0.896   0.924   0.917   0.916   0.928   0.943   0.850   0.949   1.054   1.070   0.897   0.965   0.867   0.965   0.907   1.010   0.932   1.041   0.885   0.877   0.794   0.870   0.872   0.859   0.932   0.913   0.962   0.916   0.930   0.918   0.963   0.880   0.842   0.944   0.927   0.957
   251.00    1.050   0.879   0.892   0.998   0.889   0.859   0.868   0.834   0.924   0.915   0.921   1.031   1.018   1.127   1.106   1.063   0.859   0.915   0.932   0.897   0.975   0.991   1.023   1.002   0.888   0.818   0.895   0.886   0.866   0.965   0.968   0.950   1.061   1.004   0.945   1.008   1.044   0.967   0.997   1.055   1.016
   241.00    1.041   0.911   0.964   1.021   0.887   0.915   0.913   0.953   0.940   0.851   1.053   0.959   0.973   1.067   1.028   1.016   0.892   0.837   0.910   0.945   0.964   0.971   0.950   0.949   0.865   0.824   0.908   0.938   0.865   1.025   1.091   1.083   1.100   1.107   0.883   0.980   1.009   0.987   1.052   1.030   1.051
   231.00    0.967   1.014   0.969   0.940   0.864   0.913   0.939   0.866   0.936   0.956   0.932   1.043   0.980   1.004   0.959   0.848   0.841   0.846   0.928   0.996   1.007   0.922   1.000   0.867   0.905   0.896   0.880   0.901   0.931   1.044   1.055   1.110   1.148   0.971   0.945   1.041   0.942   1.017   0.971   0.976   1.030
   221.00    1.050   0.932   0.908   0.778   0.856   0.893   0.896   0.882   0.977   0.895   1.102   0.995   0.921   0.918   0.818   0.832   0.896   0.951   0.950   0.959   1.026   0.907   1.071   0.952   0.874   0.849   0.912   0.922   0.963   0.974   1.064   1.116   1.157   1.022   0.904   0.908   0.959   0.888   0.950   0.957   0.986
   211.00    0.928   0.868   0.925   0.843   0.894   0.973   0.988   0.881   0.962   0.907   1.042   0.946   0.873   0.916   0.855   0.949   0.843   0.948   0.990   0.874   1.000   1.070   1.085   0.986   0.946   0.910   0.897   0.959   0.966   0.929   1.042   1.064   1.073   1.003   0.953   0.950   0.882   0.904   0.892   0.913   0.922
   201.00    0.883   0.877   0.878   0.875   1.005   1.063   0.981   0.870   0.891   0.928   0.988   1.015   0.894   1.044   0.920   0.958   0.940   0.974   0.975   1.036   1.031   1.101   0.897   0.943   0.984   0.935   0.897   0.991   0.927   0.885   0.973   1.011   1.077   0.975   0.931   0.974   1.071   1.005   1.003   1.010   0.918
   191.00    0.865   0.884   0.894   0.877   0.935   0.986   0.967   0.938   0.947   0.929   0.989   1.072   1.005   0.943   0.925   1.073   1.006   0.939   0.925   0.993   0.978   0.966   0.988   0.914   0.987   0.884   0.956   0.995   0.973   0.906   0.959   0.973   1.021   1.012   0.883   0.981   0.947   1.027   1.068   1.084   0.899
   181.00    0.963   0.919   0.907   0.899   0.991   0.954   1.019   0.985   0.956   0.937   0.981   0.947   1.014   0.946   0.989   1.006   1.028   0.922   0.940   1.000   0.979   0.919   0.989   0.846   1.041   0.950   1.035   1.004   0.940   0.943   0.925   0.911   0.967   0.997   0.900   0.960   1.044   0.970   1.033   1.051   0.923
   171.00    1.030   0.963   0.873   0.932   0.854   0.998   1.090   0.935   0.927   0.865   0.965   0.988   1.010   1.037   1.019   1.035   0.964   0.934   1.016   0.939   0.996   0.989   0.975   0.958   1.017   1.024   1.045   1.011   0.918   0.913   0.918   0.866   0.841   0.932   1.122   1.010   1.056   0.961   1.055   1.032   0.872
   161.00    1.154   0.901   0.952   0.914   0.944   1.064   0.957   0.963   0.902   0.813   0.923   0.995   1.022   1.051   1.112   1.007   0.919   0.964   0.981   0.920   0.992   0.995   1.029   1.017   1.028   1.042   1.027   1.052   0.952   1.002   1.018   0.839   0.852   0.927   1.090   1.023   0.975   0.985   1.051   0.998   0.871
   151.00    1.123   0.970   0.950   0.887   0.877   0.984   0.973   0.979   0.909   0.773   0.848   0.951   1.008   1.012   1.057   1.046   0.973   0.951   0.992   0.977   0.982   0.969   1.125   1.002   0.982   1.052   0.985   1.115   1.070   0.997   0.953   0.960   0.999   0.998   1.039   0.952   0.991   1.008   0.955   0.931   0.840
   141.00    1.067   0.955   0.971   0.974   0.920   0.998   0.857   1.026   0.939   0.921   0.918   0.894   0.903   0.993   0.858   0.980   0.896   0.895   0.923   0.953   0.902   0.998   1.067   1.188   1.216   1.119   1.066   0.994   1.114   1.106   1.100   1.048   1.060   1.077   1.114   1.041   1.035   1.010   0.934   0.938   0.832
   131.00    1.049   0.953   0.963   1.010   0.885   0.970   0.910   0.917   0.924   0.979   0.840   0.871   0.942   0.912   0.963   0.908   0.907   0.864   0.818   0.942   0.970   1.016   1.099   1.178   1.102   1.121   1.011   0.919   1.119   1.037   1.194   1.101   1.100   1.105   1.008   1.056   0.938   0.972   1.016   0.888   0.874
   121.00    1.110   0.932   0.963   1.010   0.907   0.950   0.869   0.973   0.892   0.959   0.875   0.867   0.800   0.932   0.983   0.886   0.925   0.993   0.945   0.991   0.976   0.969   1.039   1.120   1.056   1.143   1.109   1.033   1.140   1.119   1.157   1.053   1.173   1.210   1.099   1.050   1.026   0.939   0.913   0.837   0.832
   111.00    1.134   1.101   0.874   0.949   0.951   1.049   0.994   1.069   0.967   1.048   1.023   0.888   0.923   0.958   0.955   0.930   1.064   1.007   1.072   1.045   0.963   0.928   0.938   0.998   1.005   1.108   1.086   1.163   1.199   1.156   1.164   1.154   1.208   1.090   1.021   1.029   1.028   0.931   0.926   0.913   0.855
   101.00    1.112   1.120   0.981   0.990   0.947   1.037   1.072   1.086   1.000   1.046   1.047   0.950   0.942   0.958   0.883   1.050   1.140   1.101   1.118   1.060   0.862   0.904   1.013   1.027   0.912   1.051   1.107   1.242   1.238   1.342   1.238   1.285   1.234   1.055   1.063   1.036   1.000   0.892   1.007   0.946   0.860
    91.00    1.131   1.118   0.974   0.918   1.007   0.967   1.056   1.011   0.915   1.076   0.995   0.908   0.991   0.924   0.847   0.982   1.043   1.074   1.069   0.887   0.889   0.896   0.969   0.902   0.944   1.046   1.133   1.163   1.187   1.256   1.241   1.211   1.075   1.012   1.061   1.168   0.965   0.967   0.964   0.975   0.909
    81.00    0.941   1.130   1.121   1.041   0.866   0.903   0.963   0.946   1.094   1.012   0.914   0.862   0.934   1.020   0.941   1.050   1.171   1.119   1.060   0.969   0.912   0.913   0.867   0.934   1.072   1.135   1.164   1.114   1.169   1.252   1.253   1.185   1.051   1.032   1.047   1.095   1.045   1.046   0.894   0.906   0.874
    71.00    0.958   1.139   1.040   1.067   0.947   1.027   0.925   0.977   1.046   1.044   0.983   0.879   1.067   0.957   1.015   0.986   1.150   1.070   1.049   1.069   0.919   0.992   0.891   0.989   1.090   1.172   1.084   1.188   1.197   1.273   1.143   1.078   1.039   1.049   1.147   1.054   1.142   1.007   0.966   0.889   0.886
    61.00    1.039   1.102   1.115   1.123   1.113   1.022   0.890   0.928   0.993   1.006   0.942   0.959   1.014   0.991   0.994   0.978   1.132   1.134   1.000   1.026   1.047   0.949   0.963   1.019   1.063   1.140   1.067   1.237   1.223   1.216   1.041   1.089   1.043   1.022   1.096   1.068   1.032   1.026   1.034   0.948   0.941
    51.00    1.079   1.106   1.200   1.118   1.029   0.997   0.976   0.900   0.897   0.976   0.945   0.996   0.956   1.073   0.950   0.931   1.006   1.041   1.003   0.946   0.927   0.980   0.994   0.986   1.104   1.130   1.115   1.152   1.116   1.130   1.089   1.000   1.043   1.038   1.099   1.023   0.970   0.984   0.954   1.039   1.078
    41.00    1.040   1.133   1.160   1.025   0.904   0.921   0.913   0.888   0.855   0.960   0.978   0.925   0.960   0.890   0.860   0.889   1.001   1.005   0.971   0.955   0.978   1.000   0.905   0.984   1.105   1.143   1.045   1.084   1.059   1.012   1.137   1.142   0.996   1.052   1.026   1.010   0.825   0.898   0.884   0.989   1.032
    31.00    1.029   1.119   1.147   0.905   0.865   0.856   0.956   0.885   0.929   0.976   0.997   0.972   0.975   0.932   0.874   0.926   0.920   1.003   1.109   1.062   1.044   0.963   0.873   0.990   1.123   1.107   1.125   1.069   0.922   1.002   0.995   1.062   1.012   0.884   0.998   1.007   0.991   0.837   0.862   0.957   1.055
    21.00    0.978   1.041   1.200   1.007   0.807   0.871   0.929   0.879   0.930   0.894   1.003   0.957   0.880   0.869   0.864   0.935   0.934   0.962   0.990   0.955   1.009   0.965   0.954   1.005   1.071   1.128   1.174   1.018   0.976   1.055   0.914   1.036   0.989   0.875   0.936   0.846   0.970   0.851   0.852   1.042   1.056
    11.00    0.953   1.054   1.113   0.977   0.907   0.897   0.884   0.738   0.813   0.900   1.010   0.885   0.866   0.926   0.910   0.965   0.969   0.967   0.974   0.961   0.925   1.053   1.045   1.039   1.072   1.095   1.099   1.048   0.993   1.076   1.084   1.063   0.963   0.833   0.926   0.878   0.877   0.934   0.917   1.049   1.012
     1.00    0.974   0.981   1.118   1.056   0.909   0.869   0.883   0.898   0.840   0.897   0.916   0.948   0.826   0.869   0.936   0.989   0.875   0.998   0.963   1.044   0.978   1.068   1.007   0.991   1.097   1.106   1.085   1.029   0.972   0.917   0.999   0.945   0.953   0.835   0.979   0.946   0.991   0.904   0.976   0.997   1.012

   Height   Standard deviation at grid points for the w component:
   301.00    0.922   0.854   0.825   0.981   1.044   1.012   1.028   0.896   0.915   0.836   0.872   0.986   1.087   1.045   1.136   1.159   1.011   1.155   1.030   0.996   1.112   1.106   1.021   0.922   0.869   0.865   0.919   0.955   0.956   0.840   0.871   0.964   0.907   0.969   0.940   0.951   0.963   0.835   0.817   0.964   0.874
   291.00    0.857   0.828   0.870   0.858   1.047   0.980   0.939   0.834   0.834   0.806   0.984   1.006   1.114   0.994   1.085   1.014   1.012   1.042   1.040   0.927   1.051   1.114   1.034   0.897   0.980   0.871   0.890   0.849   0.885   0.977   0.873   0.821   0.963   0.947   0.970   0.995   0.898   0.781   0.941   0.921   0.929
   281.00    0.874   0.784   0.843   0.902   0.989   0.946   0.951   0.825   0.885   0.858   0.960   0.961   1.027   1.063   1.047   0.842   1.032   0.868   1.000   1.042   1.025   1.035   1.079   0.894   0.927   0.970   0.903   0.914   0.969   0.916   0.923   0.872   1.093   1.060   1.029   0.910   0.882   0.867   0.868   0.887   0.898
   271.00    0.931   0.823   0.920   0.934   1.025   1.008   0.988   0.916   1.025   0.968   0.935   1.047   0.967   0.977   0.931   0.956   1.003   0.875   0.928   0.957   0.955   1.001   0.934   0.889   0.979   0.853   0.868   0.996   0.885   0.838   0.812   0.992   1.055   0.986   0.967   0.963   1.012   0.984   0.867   0.800   0.951
   261.00    0.932   0.894   0.941   0.878   1.050   1.019   0.956   0.961   1.039   0.958   1.000   1.020   0.945   0.950   0.901   0.953   1.003   0.876   0.959   0.963   0.946   0.880   0.878   0.834   0.956   0.958   0.835   0.889   0.980   0.929   0.964   1.036   1.009   1.002   1.061   1.104   0.972   1.009   0.941   0.852   0.932
   251.00    0.924   0.871   0.905   0.850   1.104   1.046   1.062   1.092   1.077   0.848   0.935   0.988   0.990   0.905   0.796   0.910   1.069   0.875   0.969   1.069   0.947   0.953   0.901   0.981   1.089   0.940   0.882   0.942   0.954   0.984   1.078   1.120   0.953   0.884   1.004   1.133   1.031   1.090   1.074   0.986   0.965
   241.00    1.022   0.870   0.958   1.020   1.037   1.068   1.072   1.150   1.030   0.885   0.985   0.786   1.050   1.017   0.938   1.010   1.028   0.955   0.980   0.992   1.019   0.985   1.086   1.005   1.014   0.895   0.940   0.886   0.861   0.984   1.068   1.036   1.110   0.952   1.001   0.977   0.993   1.024   1.035   1.071   0.907
   231.00    0.960   0.928   1.017   1.002   1.047   1.017   1.022   1.036   0.921   0.853   0.933   0.988   1.026   1.049   0.943   0.909   0.947   1.027   0.979   1.116   1.086   0.995   1.005   0.988   0.944   0.812   0.851   0.878   0.860   0.898   1.013   1.125   1.007   0.958   0.940   0.982   0.916   0.973   0.952   1.000   0.999
   221.00    0.858   0.872   0.933   0.990   0.927   0.907   0.966   1.029   0.880   0.893   0.985   1.044   0.949   0.889   1.026   0.948   1.092   1.072   1.000   1.076   1.098   1.121   1.024   0.992   0.970   0.801   0.906   0.883   0.920   0.919   0.976   1.046   0.992   0.965   0.928   0.941   0.987   0.967   0.891   0.930   0.954
   211.00    0.848   0.960   0.948   0.815   0.994   0.923   0.885   0.968   0.861   1.017   1.038   0.970   0.900   1.057   0.970   0.920   1.027   1.021   1.057   0.961   1.114   1.116   1.055   0.903   0.978   0.861   0.964   0.904   0.918   0.813   0.892   0.990   0.935   0.980   0.991   0.968   0.958   0.938   0.816   0.988   0.933
   201.00    0.923   0.974   0.999   0.893   0.949   0.956   0.925   0.983   0.997   0.912   0.991   0.929   0.958   1.017   0.942   0.970   1.000   1.055   0.992   0.991   1.040   1.007   0.955   1.008   0.941   0.844   0.836   0.867   0.883   0.857   0.893   0.958   0.979   0.916   0.973   0.963   0.934   0.967   0.867   0.934   0.958
   191.00    0.923   0.911   0.867   0.820   0.891   0.996   1.005   1.002   0.921   0.889   0.961   0.882   1.000   1.015   1.042   1.016   1.016   1.069   1.046   0.956   1.029   1.092   1.002   1.059   0.998   0.799   0.839   0.845   0.882   0.870   0.878   0.977   1.061   1.041   1.144   1.018   0.939   0.971   1.002   0.938   0.982
   181.00    0.871   0.953   0.904   0.894   0.911   0.865   0.990   1.041   0.955   1.062   1.084   0.942   0.998   1.063   1.013   1.002   0.956   1.029   1.059   1.011   0.993   1.103   1.088   1.116   1.040   0.919   0.821   0.799   0.934   0.945   0.917   1.031   1.042   1.080   1.065   0.988   1.073   0.951   0.978   0.915   0.942
   171.00    0.866   0.941   1.000   0.848   0.869   0.849   1.002   0.954   1.062   1.150   1.095   0.951   1.096   1.057   1.039   1.043   1.068   1.017   1.080   0.998   1.057   1.106   1.091   1.025   0.962   0.773   0.869   0.826   0.922   0.986   0.921   0.940   0.896   1.045   1.037   1.055   1.045   0.978   0.973   0.904   0.924
   161.00    0.891   0.974   0.898   0.908   0.843   0.924   0.978   0.958   1.067   1.217   1.084   1.107   0.989   1.040   1.054   1.033   1.026   1.016   0.930   0.987   0.995   0.996   1.015   1.010   1.070   0.845   0.886   0.778   0.846   0.958   0.961   0.984   0.936   0.978   0.967   1.001   0.936   0.996   0.960   0.861   0.896
   151.00    0.987   1.013   0.816   0.903   0.880   0.857   0.941   0.953   0.983   1.140   1.124   1.047   0.996   1.032   0.971   0.993   0.927   1.002   0.985   0.996   0.983   0.873   0.902   1.037   1.020   0.890   0.837   0.783   0.763   0.814   0.890   0.963   0.929   0.958   1.067   1.057   0.954   0.949   1.041   0.886   0.934
   141.00    0.975   0.901   0.810   0.938   0.886   0.918   0.867   0.927   0.915   1.058   1.229   1.141   1.028   1.178   1.081   0.990   0.876   0.883   0.892   0.880   0.872   0.894   0.885   0.965   0.936   0.813   0.849   0.781   0.831   0.857   0.856   0.850   0.960   0.967   1.005   0.998   1.080   1.026   1.042   1.007   1.011
   131.00    1.060   1.098   0.975   0.929   0.901   0.889   0.894   0.908   0.904   1.063   1.182   1.131   1.089   1.000   1.035   1.062   0.965   0.955   0.913   0.942   0.910   0.822   0.854   0.845   0.889   0.893   0.852   0.889   0.952   0.849   0.853   0.912   0.919   0.926   1.051   0.982   1.012   0.981   0.952   0.905   1.037
   121.00    0.919   1.033   0.924   0.849   0.961   0.863   0.896   0.838   0.876   1.014   1.082   1.112   1.021   0.936   1.008   1.056   0.987   0.966   0.987   0.981   0.837   0.909   0.939   1.011   1.072   0.883   0.863   0.991   0.915   0.854   0.992   0.885   0.954   1.050   1.072   0.985   0.930   0.897   0.954   0.889   0.958
   111.00    0.860   0.938   0.871   0.873   0.852   0.905   0.857   0.850   0.937   0.930   0.978   0.960   0.935   0.953   0.999   1.072   1.006   0.932   0.906   0.963   0.784   0.996   0.982   1.079   1.056   0.979   0.916   0.941   0.912   0.961   0.893   0.924   0.967   1.024   0.979   0.994   1.017   1.028   0.919   0.964   1.019
   101.00    0.903   0.891   0.898   0.865   0.808   0.951   0.909   0.893   0.882   0.973   0.992   1.031   0.928   0.897   1.005   1.035   0.971   1.046   1.029   0.992   0.930   1.029   1.045   0.969   1.031   0.980   0.887   0.879   0.972   0.955   0.791   1.004   0.940   0.921   0.880   0.923   0.979   1.026   0.986   0.932   0.975
    91.00    0.993   0.898   0.948   0.860   0.856   0.966   0.938   0.927   0.928   0.947   0.877   0.950   0.984   0.920   0.888   0.942   0.963   0.981   1.037   1.013   0.955   0.941   0.936   0.926   0.882   0.987   0.970   0.937   0.974   0.951   0.936   0.972   1.022   0.920   0.881   0.935   0.993   0.983   0.964   0.792   0.919
    81.00    1.017   0.913   0.929   1.003   0.957   0.949   0.938   0.887   0.969   0.912   0.944   0.919   1.079   0.966   1.083   0.829   0.955   0.956   0.990   1.024   0.979   0.936   0.964   0.857   0.892   0.895   1.008   0.980   0.941   0.846   0.931   0.965   0.926   0.907   0.835   0.896   0.956   0.905   0.894   0.847   0.945
    71.00    1.005   0.948   0.837   0.935   1.008   0.866   0.948   0.964   0.954   0.829   0.889   0.950   1.011   1.109   1.127   0.993   0.959   0.928   0.938   0.927   0.921   0.964   0.918   0.886   0.835   0.902   1.003   0.902   0.913   0.881   0.934   0.974   0.869   0.863   0.900   0.856   0.980   0.851   0.850   0.830   0.916
    61.00    1.085   0.944   0.910   0.917   1.062   0.873   0.851   1.012   0.976   0.868   0.833   0.859   0.836   1.086   1.069   1.007   0.964   0.980   0.999   0.934   0.886   0.931   0.909   0.863   0.956   0.949   1.040   0.874   0.832   0.961   0.904   0.930   0.909   0.955   0.878   0.936   0.997   0.900   0.884   0.776   0.788
    51.00    1.003   0.940   0.959   0.895   1.015   1.010   0.916   0.973   1.039   0.902   0.845   0.869   1.017   1.063   1.042   1.024   0.962   0.896   0.889   0.975   0.975   0.987   0.887   0.864   0.996   1.035   1.056   0.959   0.853   0.949   0.978   0.962   0.885   0.966   0.860   0.872   0.915   0.825   0.844   0.843   0.770
    41.00    0.987   0.934   0.938   0.931   0.950   0.973   0.826   0.925   0.950   0.935   0.895   0.984   0.958   1.104   1.078   1.011   0.878   0.844   0.883   0.982   0.938   0.919   0.890   0.933   0.926   0.968   0.871   0.850   0.761   0.942   0.983   0.947   0.894   0.906   1.033   0.942   0.834   0.826   0.772   0.770   0.764
    31.00    0.945   0.863   0.998   0.960   0.963   0.932   0.931   0.999   0.955   0.979   0.902   0.880   0.947   0.989   0.964   0.967   0.751   0.839   0.951   0.947   0.885   0.944   0.878   0.864   0.929   0.848   0.901   0.872   0.920   0.952   0.860   0.968   0.944   0.972   1.082   0.938   0.847   0.784   0.819   0.864   0.931
    21.00    0.943   0.903   0.999   0.952   0.886   0.876   0.955   0.961   0.929   0.995   0.881   0.852   0.850   1.028   0.896   0.928   0.777   0.887   0.916   0.967   0.865   0.909   0.912   0.907   0.948   0.937   0.906   0.945   0.997   0.921   0.910   0.932   0.876   0.943   1.076   0.953   0.918   0.857   0.837   0.862   0.852
    11.00    0.958   0.991   1.005   0.979   0.913   0.856   0.885   0.869   0.967   0.951   0.829   0.816   0.881   0.950   0.889   0.904   0.862   0.897   0.925   0.929   0.981   0.927   0.941   0.854   0.919   0.862   0.808   0.912   0.868   0.891   0.822   0.931   0.822   0.956   1.064   0.948   0.927   0.788   0.882   0.904   0.871
     1.00    0.974   0.951   1.012   0.996   0.978   0.892   0.916   0.944   0.951   0.891   0.906   0.964   0.963   0.996   1.002   0.958   0.882   0.989   0.980   0.867   0.857   0.946   0.958   0.813   0.896   0.853   0.854   0.965   0.964   0.884   0.855   0.953   0.997   0.943   1.015   1.040   0.918   0.935   0.932   0.996   0.913

   Mean standard deviation across all grid points:
      u component:    0.962 m/s
      v component:    0.978 m/s
      w component:    0.950 m/s


U-component (X) statistics from the interpolated hub point:

   Mean =  10.0066 m/s
   TI   =  10.5463 %


Processing complete.  10.484 CPU seconds used.
