
This summary file was generated by TurbSim (from OpenFAST-v3.4.1) on 29-Nov-2024 at 15:49:56.


Runtime Options:

      2051  Random seed #1
         0  Random seed #2
         F  Output binary HH turbulence parameters?
         F  Output formatted turbulence parameters?
         F  Output AeroDyn HH files?
         T  Output AeroDyn FF files?
         F  Output BLADED FF files?
         F  Output tower data?
         F  Output HAWC FF files?
         F  Output formatted FF files?
         T  Output coherent turbulence time step file?
 0 -  NONE  IEC turbulence models scaled to exact specified standard deviation


Turbine/Model Specifications:

        31  Vertical grid-point matrix dimension
        41  Horizontal grid-point matrix dimension
     0.100  Time step [seconds]
   200.000  Analysis time [seconds]
   200.000  Usable output time [seconds]
   151.000  Hub height [m]
   300.000  Grid height [m]
   600.000  Grid width [m]
     0.000  Vertical flow angle [degrees]
     0.000  Horizontal flow angle [degrees]


Meteorological Boundary Conditions:

    IECVKM  IEC von Karman spectral model
         1  IEC standard: IEC 61400-1 Ed. 2: 1999
    10.000  Percent turbulence intensity, IEC 61400-1 Ed. 2: 1999
       NTM  IEC Normal Turbulence Model
       N/A  IEC Extreme Turbulence Model (ETM) "c" parameter [m/s]
       PL   Wind profile type
   150.000  Reference height [m]
    10.000  Reference wind speed [m/s]
       N/A  Jet height [m]
     0.100  Power law exponent
     0.030  Surface roughness length [m]


Non-IEC Meteorological Boundary Conditions:

       N/A  Site latitude [degrees]
       N/A  Gradient Richardson number
       N/A  Friction or shear velocity [m/s]
       N/A  Mixing layer depth [m]
       N/A  Mean hub u'w' Reynolds stress
       N/A  Mean hub u'v' Reynolds stress
       N/A  Mean hub v'w' Reynolds stress


Spatial Coherence Models:

       IEC  u-component coherence model
       IEC  v-component coherence model
       IEC  w-component coherence model
(   12.000, 0.659E-03)  u-component coherence parameters
(   12.000, 0.659E-03)  v-component coherence parameters
(   12.000, 0.659E-03)  w-component coherence parameters
       N/A  Coherence exponent


You have requested that the following file(s) be generated:

   ./TurbulentWind_30WT/FOWTs/Wind\InflowWind_High_WT27.bts (AeroDyn/TurbSim full-field wind file)


Turbulence Simulation Scaling Parameter Summary:

   Turbulence model used                            =  IEC von Karman
   Turbulence characteristic                        =  User-specified
   IEC standard                                     =  IEC 61400-1 Ed. 2: 1999
   Mean wind speed at hub height                    =   10.007 m/s
   Characteristic value of standard deviation       =    1.001 m/s
   Turbulence scale                                 =   21.000 m
   Isotropic integral scale                         =   73.500 m
   Characteristic value of hub turbulence intensity =   10.000%
   Gradient Richardson number                       =    0.000

   Wind profile type                                =  Power law
   Power law exponent                               =    0.100
   Mean shear across rotor disk                     =    0.016 (m/s)/m
   Assumed rotor diameter                           =  300.000 m
   Surface roughness length                         =    0.030 m

   Nyquist frequency of turbulent wind field        =    5.000 Hz

   Number of time steps in the FFT                  =     2600
   Number of time steps output                      =     2600
   Number of points simulated                       =     1271


Mean Flow Angles:

   Vertical   =   0.0 degrees
   Horizontal =   0.0 degrees

Mean Wind Speed Profile:

   Height    Wind Speed   Horizontal Angle  Vertical Angle  U-comp (X)   V-comp (Y)   W-comp (Z)
     (m)        (m/s)         (degrees)       (degrees)       (m/s)        (m/s)        (m/s)   
   ------    ----------   ----------------  --------------  ----------   ----------   ----------
    301.0       10.72            0.00            0.00         10.72         0.00         0.00
    291.0       10.69            0.00            0.00         10.69         0.00         0.00
    281.0       10.65            0.00            0.00         10.65         0.00         0.00
    271.0       10.61            0.00            0.00         10.61         0.00         0.00
    261.0       10.57            0.00            0.00         10.57         0.00         0.00
    251.0       10.53            0.00            0.00         10.53         0.00         0.00
    241.0       10.49            0.00            0.00         10.49         0.00         0.00
    231.0       10.44            0.00            0.00         10.44         0.00         0.00
    221.0       10.40            0.00            0.00         10.40         0.00         0.00
    211.0       10.35            0.00            0.00         10.35         0.00         0.00
    201.0       10.30            0.00            0.00         10.30         0.00         0.00
    191.0       10.24            0.00            0.00         10.24         0.00         0.00
    181.0       10.19            0.00            0.00         10.19         0.00         0.00
    171.0       10.13            0.00            0.00         10.13         0.00         0.00
    161.0       10.07            0.00            0.00         10.07         0.00         0.00
    151.0       10.01            0.00            0.00         10.01         0.00         0.00
    141.0        9.94            0.00            0.00          9.94         0.00         0.00
    131.0        9.87            0.00            0.00          9.87         0.00         0.00
    121.0        9.79            0.00            0.00          9.79         0.00         0.00
    111.0        9.70            0.00            0.00          9.70         0.00         0.00
    101.0        9.61            0.00            0.00          9.61         0.00         0.00
     91.0        9.51            0.00            0.00          9.51         0.00         0.00
     81.0        9.40            0.00            0.00          9.40         0.00         0.00
     71.0        9.28            0.00            0.00          9.28         0.00         0.00
     61.0        9.14            0.00            0.00          9.14         0.00         0.00
     51.0        8.98            0.00            0.00          8.98         0.00         0.00
     41.0        8.78            0.00            0.00          8.78         0.00         0.00
     31.0        8.54            0.00            0.00          8.54         0.00         0.00
     21.0        8.22            0.00            0.00          8.22         0.00         0.00
     11.0        7.70            0.00            0.00          7.70         0.00         0.00
      1.0        6.06            0.00            0.00          6.06         0.00         0.00


Harvested Random Seeds after Generation of the Random Numbers:

    191411089 Harvested seed # 1
   1971657505 Harvested seed # 2


Hub-Height Simulated Turbulence Statistical Summary:

   Type of Wind        Min (m/s)   Mean (m/s)    Max (m/s)  Sigma (m/s)       TI (%)
   ----------------    ---------   ----------    ---------  -----------       ------
   Longitudinal (u)         7.39        10.01        13.73        1.034       10.333
   Lateral (v)             -3.16         0.00         2.51        0.897        8.963
   Vertical (w)            -2.95         0.00         3.27        1.045       10.443
   U component              7.39        10.01        13.73        1.034       10.333
   V component             -3.16         0.00         2.51        0.897        8.963
   W component             -2.95         0.00         3.27        1.045       10.443
   Horizontal (U&V)         7.45        10.05        13.79        1.033       10.279
   Total                    7.53        10.10        13.82        1.017       10.067

                       Min Reynolds     Mean Reynolds    Max Reynolds    Correlation
   Product             Stress (m/s)^2   Stress (m/s)^2   Stress (m/s)^2  Coefficient
   ----------------    --------------   --------------   --------------  -----------
   u'w'                     -4.061             0.137             4.789         0.127
   u'v'                     -3.561             0.054             5.986         0.058
   v'w'                     -4.344            -0.129             4.471        -0.138


   Friction Velocity (Ustar)  =      0.371 m/s
   Maximum Instantaneous TKE  =      8.256 (m/s)^2
   Maximum Instantaneous CTKE =      3.888 (m/s)^2


Grid Point Variance Summary:

   Y-coord -300.00 -285.00 -270.00 -255.00 -240.00 -225.00 -210.00 -195.00 -180.00 -165.00 -150.00 -135.00 -120.00 -105.00  -90.00  -75.00  -60.00  -45.00  -30.00  -15.00    0.00   15.00   30.00   45.00   60.00   75.00   90.00  105.00  120.00  135.00  150.00  165.00  180.00  195.00  210.00  225.00  240.00  255.00  270.00  285.00  300.00

   Height   Standard deviation at grid points for the u component:
   301.00    1.000   1.012   0.871   0.974   0.939   0.972   0.871   0.845   0.878   0.892   0.948   0.920   1.017   1.073   1.071   1.125   1.112   0.991   0.949   0.867   0.891   0.924   0.886   0.934   0.900   0.952   0.945   1.064   1.030   0.946   0.950   1.000   0.809   0.818   0.910   1.029   1.013   0.891   1.033   1.002   0.856
   291.00    1.050   0.930   0.972   0.945   0.968   0.900   0.930   0.937   1.050   0.922   0.864   0.929   0.912   0.957   0.868   1.085   1.155   1.000   0.915   0.902   0.887   0.939   0.803   0.830   0.840   1.000   1.108   1.069   1.059   0.898   0.852   0.963   0.817   0.997   1.087   0.949   0.998   0.931   0.890   0.894   0.914
   281.00    0.977   0.966   0.942   0.985   1.089   1.043   0.997   1.009   0.979   0.973   0.877   0.861   0.881   0.870   0.996   1.073   1.085   1.019   0.829   0.968   0.937   0.951   0.837   0.875   0.999   0.898   1.038   1.049   1.060   0.911   0.853   0.880   0.846   0.899   0.966   0.990   0.949   1.008   0.990   0.914   0.875
   271.00    0.988   0.973   1.042   1.126   1.101   1.093   1.023   1.012   0.976   0.964   0.840   0.781   0.863   0.975   0.969   0.990   1.056   0.919   1.055   0.995   0.912   0.857   0.923   0.977   0.910   1.044   0.985   0.956   1.038   0.844   0.864   0.824   0.897   0.961   1.041   1.136   1.043   1.157   1.049   0.897   0.956
   261.00    1.042   1.038   1.062   1.088   1.042   0.965   1.035   1.052   1.018   1.114   0.979   0.808   0.913   0.986   0.919   0.936   0.980   1.061   1.030   1.032   0.999   0.867   0.925   0.944   0.907   0.886   0.905   1.020   0.987   0.895   0.817   0.841   0.871   0.956   1.095   1.136   1.170   1.019   0.993   0.985   1.021
   251.00    0.963   1.030   1.105   1.072   1.084   0.997   1.018   0.981   1.072   1.163   1.036   0.870   0.910   0.983   0.886   0.985   0.994   0.983   0.991   0.977   1.002   0.902   0.894   0.876   0.953   0.995   1.007   1.045   0.989   0.864   0.859   0.885   0.965   1.058   1.074   1.061   1.193   1.038   0.966   1.085   0.859
   241.00    0.886   0.970   1.127   1.053   1.084   0.994   0.906   0.833   0.961   1.009   1.027   0.944   0.982   0.969   0.952   0.988   0.979   0.994   1.034   0.957   0.944   0.791   0.834   0.868   0.882   0.977   0.912   1.017   0.965   0.936   0.881   1.019   0.993   0.979   0.887   0.987   1.072   1.039   1.025   0.972   0.958
   231.00    0.921   1.051   1.059   0.950   0.990   0.962   0.924   0.840   0.925   0.954   0.992   1.087   0.948   0.970   0.952   0.979   1.007   0.873   1.034   1.089   0.898   0.707   0.814   0.875   0.927   0.992   0.916   1.007   0.992   0.961   0.934   0.957   1.053   0.948   0.917   1.071   0.964   1.062   0.962   0.968   0.968
   221.00    0.903   1.095   1.077   1.050   0.904   0.875   0.904   0.939   0.952   1.015   1.125   1.094   1.014   1.035   0.968   0.980   1.033   0.949   1.078   1.092   0.928   0.905   0.814   0.849   0.882   0.936   0.879   0.944   0.954   0.981   0.970   0.981   1.018   1.077   0.944   1.012   1.049   1.088   0.985   0.889   0.866
   211.00    0.978   1.042   1.045   1.117   0.839   0.936   0.841   0.981   0.954   0.960   0.920   1.032   1.014   1.119   0.958   1.024   1.012   1.013   1.041   1.134   0.909   0.905   0.836   0.847   1.043   1.033   0.734   0.973   0.978   1.057   1.146   1.093   0.976   1.042   0.884   0.998   0.965   1.049   0.951   0.867   0.891
   201.00    1.049   0.997   1.074   1.014   0.925   0.930   0.915   0.949   0.894   0.907   0.848   0.889   1.049   1.049   0.946   1.013   0.899   1.008   1.022   1.015   0.821   0.839   0.876   0.957   1.050   1.045   0.938   1.018   1.132   1.063   1.120   1.178   1.080   1.034   1.114   1.059   0.990   1.065   1.026   0.819   0.803
   191.00    1.110   1.078   0.994   0.971   0.904   0.914   0.956   1.056   0.966   0.836   0.983   0.900   1.052   0.942   0.986   0.932   1.129   1.064   1.002   0.961   0.797   0.897   0.879   0.917   0.988   0.973   1.035   1.119   1.126   1.108   1.117   1.166   1.047   1.040   1.118   1.043   0.936   0.978   0.955   0.866   0.812
   181.00    1.010   1.049   1.057   0.968   0.970   0.881   0.913   1.054   1.010   0.891   0.950   0.967   0.872   0.991   0.994   0.898   1.033   1.016   0.901   0.940   0.906   0.988   0.983   0.829   0.955   0.982   0.947   1.023   1.190   1.229   1.196   1.207   1.014   1.063   1.046   0.967   0.876   0.899   0.912   0.817   0.938
   171.00    1.001   1.013   1.045   0.947   0.944   0.985   0.957   1.143   1.079   0.974   0.971   0.839   0.917   0.918   1.014   0.969   1.056   0.841   0.862   0.928   0.953   0.894   0.996   0.860   0.822   0.862   0.895   1.009   1.110   1.178   1.176   1.210   1.069   0.917   0.904   0.898   0.883   0.861   0.989   0.836   0.970
   161.00    0.972   0.978   0.981   0.919   0.948   1.079   1.056   1.074   1.065   0.925   1.056   0.846   0.966   0.893   0.902   1.029   1.064   0.928   0.800   0.948   0.996   0.896   1.028   0.878   0.880   0.935   0.926   0.934   1.107   1.064   1.062   1.142   1.018   1.044   0.950   0.780   0.901   0.902   1.018   0.992   1.005
   151.00    1.123   0.952   0.931   0.932   1.055   0.967   1.023   1.057   1.068   1.068   1.019   0.939   0.923   0.884   1.017   1.028   1.038   1.016   1.009   1.015   1.034   0.928   0.894   0.832   0.869   0.918   0.959   0.956   1.028   1.125   1.073   0.982   0.989   1.027   1.133   0.950   0.934   0.891   0.896   0.945   0.898
   141.00    0.980   0.931   0.927   0.954   0.979   0.994   0.960   0.981   0.951   1.055   1.030   0.974   0.904   0.909   1.027   1.046   0.996   1.080   1.118   0.966   1.093   0.988   0.919   0.752   0.865   0.866   0.864   0.940   0.931   0.948   0.929   0.947   1.025   1.078   1.044   0.968   0.916   0.895   0.931   1.106   0.954
   131.00    0.973   0.939   0.863   0.839   0.818   1.111   1.031   1.047   1.115   1.025   0.926   0.913   0.991   1.023   1.022   1.034   0.914   0.961   1.021   1.072   1.030   0.904   1.002   0.957   0.863   0.857   0.822   0.926   0.901   0.841   0.923   0.977   0.964   0.997   1.049   0.954   0.863   0.815   0.978   1.136   0.861
   121.00    0.961   0.890   0.857   0.933   0.880   1.033   1.041   1.127   1.080   1.071   0.963   0.994   1.004   1.034   1.097   1.077   0.947   0.818   0.928   1.066   0.901   0.917   0.905   0.924   0.772   0.782   0.729   0.865   0.903   0.834   0.897   0.916   1.011   0.940   0.938   0.952   0.766   0.836   0.989   0.958   0.927
   111.00    0.807   0.801   0.916   0.914   0.965   1.024   1.002   1.085   1.086   1.164   0.933   1.025   1.087   1.106   1.143   1.015   0.763   0.882   0.961   1.018   0.944   0.892   1.006   0.926   1.002   0.811   0.852   0.880   0.928   0.990   0.841   0.967   0.855   0.864   0.817   0.918   0.864   0.839   0.878   0.922   0.885
   101.00    0.803   0.803   0.905   0.953   1.020   1.031   0.995   1.171   1.067   1.119   1.178   1.076   1.080   0.999   1.121   0.909   0.896   0.827   0.925   0.940   1.008   0.912   0.982   0.959   0.919   0.878   0.952   0.820   0.870   0.927   0.846   0.836   1.020   0.865   0.783   0.801   0.937   0.944   0.898   0.951   0.816
    91.00    0.748   0.794   0.961   0.939   1.059   0.962   1.118   1.098   1.036   0.997   1.080   1.046   0.981   0.959   1.062   0.929   1.007   0.905   0.869   0.939   0.932   0.875   0.935   0.952   0.854   0.924   0.945   0.911   0.843   0.801   0.865   0.897   0.910   0.819   0.750   0.918   0.973   0.867   0.900   0.930   0.931
    81.00    0.775   0.923   0.898   0.887   0.877   1.020   1.061   0.983   0.895   1.011   0.976   0.983   0.875   0.936   0.936   1.071   0.956   0.919   0.881   0.882   0.939   0.821   0.883   0.881   0.921   0.947   0.966   0.913   0.791   0.948   0.875   1.023   1.015   0.899   0.951   0.990   0.908   0.985   0.917   0.843   0.862
    71.00    0.814   0.914   0.899   0.807   0.893   1.009   0.959   0.886   0.921   0.898   0.991   0.944   0.954   0.888   0.895   1.024   1.102   0.867   0.911   0.874   0.978   0.994   0.894   0.970   1.080   0.991   0.961   1.036   0.920   0.832   0.897   0.993   0.959   0.896   0.920   0.942   0.990   0.993   0.833   0.925   0.835
    61.00    0.739   0.860   0.913   0.817   0.808   1.030   0.972   0.867   0.935   0.950   0.941   0.890   0.835   0.957   0.992   0.998   1.037   0.932   1.046   0.913   0.926   0.998   1.008   1.070   1.063   0.969   0.992   1.033   0.923   0.909   0.942   0.978   0.912   0.814   0.946   1.041   0.951   0.946   0.802   0.962   0.937
    51.00    0.778   0.805   0.827   0.988   0.893   1.020   0.945   0.985   1.115   0.978   0.999   0.905   0.968   0.911   0.831   0.899   1.040   1.015   1.092   0.839   0.817   0.849   0.984   1.059   0.978   1.021   1.080   0.995   0.957   0.959   0.867   0.924   0.863   0.896   0.936   1.043   0.978   1.028   0.944   0.995   0.977
    41.00    0.791   0.905   0.969   0.991   1.013   1.014   0.921   0.943   1.001   1.024   0.923   0.970   0.992   0.917   0.876   0.893   0.954   0.968   1.109   0.885   0.797   0.927   0.946   1.054   0.998   0.944   0.992   1.063   0.927   0.943   0.962   1.041   0.900   0.958   1.007   1.014   0.932   0.983   0.949   0.991   0.807
    31.00    0.794   0.831   0.949   0.976   1.111   1.114   0.897   0.864   0.973   0.970   0.968   0.984   0.968   0.971   0.864   0.787   0.861   0.930   1.003   1.030   0.867   0.886   1.005   0.845   0.926   0.961   1.059   0.989   0.971   1.014   1.025   0.949   0.887   0.800   0.967   0.864   0.840   0.943   0.802   0.786   0.835
    21.00    0.798   0.872   0.961   0.882   1.057   1.016   0.908   0.880   0.880   1.012   0.937   0.910   1.031   0.901   0.823   0.916   0.869   0.870   0.953   0.920   0.895   0.901   0.868   0.884   0.932   1.015   0.949   0.953   0.796   0.963   0.992   0.945   0.779   0.809   0.831   0.927   0.860   0.884   0.948   0.899   0.823
    11.00    0.880   0.928   0.973   0.925   1.004   1.048   0.874   0.853   0.935   0.903   1.009   0.945   1.030   0.935   0.967   0.984   0.805   0.911   0.861   0.874   0.862   0.888   0.869   0.877   0.874   0.971   0.988   0.915   0.915   0.981   0.994   1.003   0.819   0.843   0.921   0.839   0.869   0.923   0.874   0.814   0.823
     1.00    0.963   0.930   0.978   1.012   0.905   1.000   0.996   0.969   0.975   0.915   0.957   1.010   0.990   1.011   0.959   0.937   0.915   0.893   0.862   0.925   0.870   0.925   0.881   0.837   0.849   0.884   0.887   0.844   0.852   0.926   1.037   1.045   0.872   0.866   0.947   0.999   0.883   0.923   0.864   0.875   0.797

   Height   Standard deviation at grid points for the v component:
   301.00    0.939   0.965   0.980   0.969   0.960   0.891   0.976   0.968   0.989   0.884   1.037   1.097   1.096   0.999   0.999   1.092   1.083   0.992   0.888   0.859   0.874   0.895   0.906   0.903   0.985   0.850   0.979   1.027   0.987   0.987   1.050   1.045   1.016   0.974   1.126   1.107   1.066   1.073   1.186   1.083   1.018
   291.00    1.035   1.001   1.071   0.867   0.965   0.952   0.933   0.973   1.020   1.013   1.003   1.047   1.146   0.921   0.939   0.980   1.101   1.133   0.918   0.845   0.837   0.890   0.862   0.902   1.049   0.983   0.993   1.030   0.963   1.021   1.021   1.077   0.958   1.093   1.091   1.098   1.146   1.163   1.125   1.072   0.957
   281.00    1.065   1.136   1.029   0.935   0.905   0.950   0.913   0.844   1.008   1.052   1.063   0.973   1.053   0.871   0.893   0.909   0.949   1.041   0.985   0.908   0.842   0.862   0.952   0.953   0.961   1.051   0.999   0.965   0.909   0.891   0.994   0.984   1.043   1.085   1.028   1.058   1.143   1.135   1.152   1.040   1.024
   271.00    0.984   1.072   0.921   0.889   1.012   1.036   0.928   0.835   1.046   1.046   1.060   1.079   0.962   1.021   0.939   0.974   0.905   0.953   0.966   0.945   0.845   0.840   0.902   1.020   0.940   0.987   1.004   0.890   0.855   0.940   0.949   0.951   0.955   1.027   1.037   1.076   1.077   1.036   1.064   0.981   1.016
   261.00    0.968   0.982   0.981   0.935   0.995   0.945   0.927   0.986   0.934   1.051   1.042   1.038   0.979   0.923   0.946   1.006   0.987   1.026   1.017   1.079   0.854   0.917   0.907   1.015   1.105   1.091   1.059   0.916   0.812   0.986   0.935   0.936   0.971   0.905   1.008   1.023   0.978   1.008   1.052   1.040   1.013
   251.00    0.955   0.860   0.959   0.911   0.860   0.974   0.888   1.035   1.043   1.086   1.052   1.048   0.978   0.981   0.974   0.957   0.968   1.067   1.036   0.991   0.984   0.930   0.968   0.920   1.036   1.023   0.957   1.041   1.022   1.019   0.943   0.831   0.881   0.926   0.999   0.982   1.003   1.004   1.014   1.033   1.008
   241.00    0.966   0.843   0.907   0.928   0.974   0.849   0.936   1.050   1.096   0.960   0.966   0.982   0.914   0.939   0.948   0.934   1.018   1.081   0.987   0.972   0.867   0.925   0.919   0.967   1.010   1.019   1.043   1.026   0.943   1.009   0.928   0.847   0.826   0.881   0.933   0.909   1.021   1.016   1.018   0.988   0.908
   231.00    0.916   0.923   0.962   0.952   0.915   0.814   0.908   1.052   1.049   0.952   0.985   0.950   0.966   0.967   0.958   0.904   1.012   0.978   1.007   0.995   0.994   0.988   0.992   0.976   0.940   0.956   0.978   0.980   0.927   0.906   0.875   0.913   0.943   0.948   0.842   0.942   0.925   1.016   0.960   0.954   1.042
   221.00    0.866   0.968   0.925   0.906   0.902   0.819   0.847   1.029   1.023   0.991   0.986   1.018   1.043   0.880   0.938   0.835   0.951   0.947   0.956   0.968   0.929   0.959   0.847   0.936   0.996   0.965   0.982   1.008   0.924   0.932   0.825   0.829   0.847   0.861   0.919   0.932   0.907   0.965   0.906   0.985   1.048
   211.00    0.918   0.965   0.976   0.966   0.845   0.910   0.796   0.957   0.928   1.025   0.936   1.022   1.039   0.908   0.842   0.819   0.969   0.904   0.965   0.952   0.903   0.888   0.881   0.981   1.060   1.009   1.041   0.957   0.877   0.924   0.957   0.869   0.860   0.820   0.811   0.879   0.877   0.914   0.921   1.120   1.046
   201.00    0.920   0.904   0.863   0.902   0.785   0.938   0.839   0.957   0.956   0.983   0.955   1.038   1.053   0.934   0.961   0.876   0.926   1.023   1.032   0.964   0.978   0.903   0.920   0.919   1.001   0.993   0.951   0.903   0.902   0.944   0.879   0.898   0.896   0.843   0.902   0.853   0.800   0.945   0.972   1.116   1.070
   191.00    0.893   0.879   0.826   0.946   0.956   0.952   0.806   0.954   0.998   0.909   0.856   1.004   0.955   0.935   1.031   0.939   0.988   1.032   1.020   0.948   0.835   0.876   0.907   0.910   0.943   0.955   0.927   0.930   0.992   0.918   1.023   1.062   1.049   0.834   0.838   0.884   0.848   0.929   1.007   1.003   1.065
   181.00    1.026   0.919   0.903   0.996   0.958   1.004   0.997   0.911   0.894   0.909   0.948   0.935   0.907   0.955   0.926   0.908   1.060   0.965   0.949   0.956   0.884   0.910   0.890   0.891   0.880   0.846   0.920   0.957   0.974   0.958   1.106   1.085   0.989   0.918   0.880   0.874   0.906   0.924   0.940   0.996   0.989
   171.00    1.029   0.901   0.919   0.926   1.018   0.957   0.928   0.974   0.969   0.972   1.011   0.927   1.036   0.983   0.881   0.927   1.027   0.986   0.999   0.982   0.895   0.966   0.849   0.916   0.947   0.860   0.846   0.901   1.094   1.013   1.100   1.071   1.090   0.963   0.894   0.871   0.823   0.826   0.891   0.863   0.961
   161.00    0.990   0.895   0.982   1.011   0.897   0.964   0.943   0.958   0.887   0.976   0.998   1.058   0.997   0.917   0.880   0.958   1.007   0.917   0.915   0.965   0.901   0.858   0.916   0.886   1.006   0.879   1.036   1.044   1.079   1.075   1.099   0.968   1.022   1.035   0.852   0.853   0.910   0.843   0.843   0.852   0.920
   151.00    0.978   0.962   0.951   0.970   0.914   0.985   1.037   0.971   0.805   0.928   0.980   1.025   0.977   0.986   1.000   0.971   0.994   0.971   0.930   0.923   0.897   0.875   0.949   0.897   0.977   1.013   1.078   1.091   1.075   1.025   0.984   0.937   0.964   0.891   0.893   0.863   0.958   0.915   0.917   0.860   0.890
   141.00    1.031   1.020   1.069   0.978   0.953   0.984   1.003   0.934   0.890   0.884   0.905   0.990   0.960   0.919   0.954   0.957   0.890   0.846   0.901   0.979   0.990   0.843   0.992   1.010   0.937   1.066   1.082   1.020   1.035   0.928   0.899   0.961   0.956   0.979   0.895   0.950   0.958   0.915   0.952   0.995   0.915
   131.00    0.949   1.053   1.065   1.044   0.991   1.033   0.952   0.915   0.969   0.897   0.931   0.911   0.841   0.890   0.955   0.948   0.832   0.806   0.861   0.937   1.004   0.854   0.933   1.021   0.923   1.105   1.042   1.045   0.951   0.827   0.804   0.878   0.912   0.946   0.893   0.933   0.855   0.913   0.951   0.918   0.813
   121.00    0.953   0.994   1.039   1.048   0.896   0.952   0.936   0.921   0.891   0.991   0.904   0.848   0.861   0.875   0.914   0.933   0.808   0.879   0.967   0.907   0.941   0.979   1.015   0.932   0.971   1.062   1.041   0.997   0.982   0.874   0.974   0.916   1.029   0.928   0.948   0.882   0.962   0.805   0.948   0.918   0.912
   111.00    0.985   0.877   1.054   1.047   0.843   0.898   0.991   0.951   0.967   1.034   0.930   0.906   0.834   0.886   0.960   0.863   1.029   0.947   0.981   0.908   0.986   0.971   1.072   0.915   0.957   0.953   0.968   0.922   0.864   0.927   1.010   0.914   1.035   0.968   0.963   0.876   0.838   0.862   0.943   0.964   0.935
   101.00    0.948   0.960   1.045   1.064   0.950   1.067   1.069   1.139   1.095   1.112   0.941   0.862   0.855   0.853   0.993   0.951   1.093   1.063   1.092   1.025   1.108   0.991   1.000   0.971   0.972   1.040   1.023   0.927   0.890   0.955   0.986   1.011   1.048   0.961   0.950   0.863   0.858   0.945   0.940   0.971   0.958
    91.00    1.028   1.160   1.083   1.156   1.034   1.056   1.087   1.197   1.171   1.131   0.996   0.856   0.937   0.952   0.947   0.978   0.973   0.968   0.971   1.010   1.043   0.993   0.917   0.996   1.048   1.059   1.036   0.848   0.910   0.876   0.963   1.014   0.989   0.919   0.932   0.970   0.925   0.837   0.899   0.938   0.946
    81.00    0.979   1.103   1.097   1.060   1.070   1.162   1.243   1.351   1.181   1.113   1.078   0.911   0.920   0.927   0.887   0.995   0.947   1.026   0.926   1.074   1.037   0.937   1.014   0.998   1.028   1.070   1.083   0.939   0.876   0.946   0.959   0.859   0.962   0.841   0.910   0.945   0.900   0.917   0.985   0.959   0.911
    71.00    0.959   1.085   1.081   1.122   1.075   1.106   1.162   1.183   1.159   1.085   1.025   0.944   0.821   0.893   0.973   0.988   1.040   0.966   1.044   1.075   1.031   1.004   0.989   1.020   1.060   1.025   1.042   0.904   0.842   0.898   0.994   1.016   0.914   0.838   0.964   0.948   0.916   0.938   0.965   0.806   0.855
    61.00    0.962   0.982   1.154   1.050   1.080   1.081   1.022   1.062   1.081   0.935   0.944   0.930   0.787   0.829   1.017   1.071   1.058   1.062   1.014   1.040   0.985   0.985   1.000   0.969   1.030   0.978   1.025   1.073   0.965   0.947   1.061   1.007   1.013   0.986   1.099   0.925   0.924   1.020   0.952   0.907   0.896
    51.00    0.880   0.950   0.953   1.078   1.073   1.053   1.067   1.119   0.990   0.859   0.955   0.962   0.763   0.932   1.025   1.074   1.159   0.999   1.001   0.992   0.905   0.911   0.950   0.992   1.028   1.090   1.033   1.034   0.970   0.974   1.047   0.925   1.030   1.105   1.053   1.021   0.975   1.012   0.890   0.910   0.909
    41.00    0.852   0.878   0.968   1.041   1.087   1.016   0.991   1.085   0.900   0.919   0.967   1.025   0.870   0.994   1.040   1.066   1.052   1.066   1.035   0.990   0.908   0.996   1.010   1.023   1.108   1.016   1.026   0.986   0.877   1.019   1.038   0.979   1.053   1.002   1.133   1.052   0.985   1.007   0.831   0.876   0.925
    31.00    0.888   0.944   0.901   0.922   1.048   1.038   1.062   1.106   0.884   0.877   0.922   1.023   0.982   0.979   1.096   1.037   0.919   0.941   1.053   1.079   1.058   1.033   1.121   0.951   1.028   1.039   1.098   1.045   1.076   0.944   0.960   1.003   0.979   1.075   1.108   1.079   1.138   1.033   0.945   0.943   0.888
    21.00    0.901   0.984   0.892   0.983   1.078   1.038   1.071   1.068   0.896   0.923   0.933   1.029   1.001   0.918   0.995   1.044   0.855   0.910   1.045   0.987   1.090   1.149   1.202   1.053   1.142   1.173   1.101   1.042   1.130   0.948   1.025   0.970   1.034   1.005   1.024   1.086   0.987   0.951   0.954   0.912   1.013
    11.00    0.927   0.923   0.869   0.907   1.037   1.128   1.118   0.958   0.876   0.943   0.959   1.050   1.088   1.018   0.977   1.107   0.922   0.844   0.964   0.971   1.080   1.128   1.070   1.019   1.114   1.174   1.091   1.020   1.062   1.023   1.022   0.970   0.983   0.951   0.966   0.947   0.959   0.855   0.870   0.895   0.968
     1.00    0.974   0.890   0.917   0.936   1.049   1.025   1.068   1.010   0.956   0.905   0.942   1.001   1.081   1.129   1.120   1.002   0.913   0.922   0.950   1.034   1.064   1.032   0.890   0.976   1.043   1.126   1.116   1.068   1.111   1.101   1.043   0.954   0.892   0.921   0.830   0.960   0.913   0.886   0.893   0.838   0.880

   Height   Standard deviation at grid points for the w component:
   301.00    1.113   1.008   1.012   0.923   0.939   0.846   0.936   0.893   0.957   0.915   0.920   0.886   0.935   0.999   0.951   0.930   0.903   0.959   0.929   1.017   0.842   0.854   0.888   0.980   1.045   1.144   1.086   1.167   1.177   1.209   1.138   1.127   1.115   1.041   1.203   1.174   0.980   1.026   0.953   0.970   0.993
   291.00    1.057   1.012   0.967   0.799   0.860   0.842   0.800   0.781   0.917   0.840   0.935   0.922   0.919   0.930   0.977   0.867   0.887   0.881   0.947   0.906   0.919   0.881   1.029   0.978   0.979   1.073   1.072   1.189   1.115   1.125   1.028   1.170   1.072   1.002   1.179   1.094   0.995   1.041   1.049   1.043   0.996
   281.00    0.958   0.953   0.880   0.914   0.856   0.905   0.883   0.845   0.836   0.991   0.966   0.948   0.912   0.920   0.859   0.926   0.914   0.847   0.927   0.914   0.944   0.955   1.051   1.013   0.981   1.107   1.171   1.080   1.041   1.092   1.017   1.071   1.070   1.120   1.163   1.033   1.051   1.068   1.077   1.059   0.932
   271.00    0.977   0.978   1.019   0.868   0.820   0.892   0.932   0.893   1.023   0.943   0.894   0.962   0.946   0.921   0.889   0.921   0.913   0.935   0.895   0.850   0.888   0.963   0.962   0.992   1.070   1.152   1.010   1.069   1.104   1.038   1.098   1.115   1.022   1.090   1.115   1.041   1.083   1.146   1.025   0.948   0.940
   261.00    0.945   0.937   0.945   0.897   0.831   0.918   0.950   0.997   0.948   0.948   0.925   1.015   1.074   0.922   0.912   0.908   0.970   0.974   0.951   0.831   0.921   0.938   0.994   1.133   0.951   0.988   0.858   0.971   1.050   1.124   1.097   1.114   1.081   1.060   1.109   1.002   1.136   1.244   1.135   1.086   0.931
   251.00    1.012   0.930   0.916   0.914   0.853   0.958   0.876   0.957   0.951   0.949   0.875   0.956   0.945   0.922   0.888   0.967   0.978   0.974   0.908   0.795   0.960   0.966   0.941   1.066   0.994   0.880   0.853   0.859   0.983   1.034   1.143   1.175   1.133   1.122   1.170   1.043   1.066   1.175   1.249   1.069   1.025
   241.00    0.918   0.901   0.944   0.925   0.823   0.921   1.003   0.969   0.875   0.978   0.907   0.973   0.965   0.885   0.972   0.915   0.906   0.941   0.982   1.010   0.957   0.947   1.029   1.053   1.032   0.938   0.895   0.886   1.026   1.107   1.062   1.105   1.096   1.144   1.116   1.003   1.026   1.073   1.131   1.059   1.127
   231.00    1.003   0.905   0.907   0.895   0.856   0.957   0.955   0.917   0.969   1.009   0.990   0.957   0.901   0.976   0.954   1.008   0.917   0.972   0.910   0.912   0.898   0.995   0.986   1.111   1.149   0.989   1.074   0.970   0.975   1.004   0.996   1.056   1.042   1.125   1.084   1.069   1.077   1.123   1.118   1.019   0.961
   221.00    0.969   0.905   0.922   0.867   0.937   0.948   0.920   0.878   0.885   1.019   0.952   1.001   0.966   1.038   0.961   0.984   1.019   0.959   0.968   0.950   0.975   0.981   1.046   1.037   1.127   0.977   1.119   1.040   0.999   0.957   1.041   1.048   1.061   1.052   1.119   1.121   1.070   1.090   1.084   0.953   0.932
   211.00    1.066   1.001   0.878   0.852   0.894   0.980   1.018   0.891   0.919   0.958   0.985   0.898   0.851   0.869   0.942   0.975   0.955   1.048   0.978   0.961   0.953   0.888   0.933   0.968   1.068   1.021   1.057   0.973   1.022   1.025   1.055   0.992   1.085   0.978   1.061   1.170   1.088   1.074   1.024   0.946   0.996
   201.00    0.996   1.019   0.965   0.851   0.867   0.876   0.897   0.940   1.006   0.913   0.965   0.857   0.888   0.944   1.108   1.101   1.101   1.042   0.996   0.962   0.959   0.952   0.904   0.876   0.955   0.912   1.066   1.009   0.982   1.013   1.003   1.060   1.011   1.020   1.097   1.255   1.149   1.126   1.035   0.936   1.009
   191.00    0.889   0.950   0.897   0.892   0.854   0.933   1.031   0.990   1.001   1.024   0.962   0.972   1.016   0.980   0.988   1.094   1.063   0.973   1.001   1.074   0.962   0.935   0.952   0.949   0.846   0.980   0.966   1.009   0.993   0.946   1.001   0.921   1.065   1.000   1.061   1.238   1.188   1.084   1.144   1.002   1.009
   181.00    0.894   0.916   0.818   0.840   0.977   0.955   1.032   1.048   1.035   0.973   0.950   0.919   0.952   0.950   1.002   1.049   1.064   1.079   1.011   0.988   0.929   0.913   0.891   0.931   0.937   0.927   0.912   1.007   0.929   0.946   0.985   1.040   1.038   1.153   1.126   1.113   1.021   1.128   0.982   1.054   1.000
   171.00    0.971   0.907   0.868   0.872   0.963   0.947   0.964   1.089   1.092   1.046   0.967   1.154   1.007   0.961   1.074   1.023   1.024   1.078   0.977   0.956   1.009   0.940   0.905   0.956   0.851   1.005   0.905   0.986   0.960   0.930   0.979   0.935   1.111   1.126   1.153   1.096   1.037   1.131   1.019   1.121   1.070
   161.00    0.864   0.905   0.871   0.944   0.956   0.894   0.906   0.967   1.030   1.016   1.018   1.097   1.047   0.993   1.044   0.909   0.922   1.010   1.115   0.983   0.983   0.944   1.002   0.934   1.069   1.106   0.884   0.891   0.998   0.857   0.924   0.935   1.107   1.113   1.065   1.128   0.979   1.072   1.031   1.166   1.124
   151.00    0.901   0.882   0.981   0.932   0.964   0.892   0.890   0.959   0.892   0.900   0.967   1.044   0.900   0.938   0.863   0.999   0.961   0.965   1.012   1.069   1.045   0.902   1.022   1.076   1.147   1.151   0.938   0.984   0.966   0.968   0.880   1.012   1.114   1.203   1.081   1.125   0.970   1.069   1.105   1.068   1.101
   141.00    0.922   0.974   0.987   0.980   0.953   0.897   0.909   0.858   0.898   0.958   0.904   0.956   1.002   0.958   1.013   1.029   1.069   0.986   0.989   0.929   0.992   1.023   0.952   1.084   1.101   1.069   1.005   0.961   0.950   1.019   0.948   0.940   1.039   1.114   1.170   1.070   1.031   1.057   1.042   0.992   1.064
   131.00    0.894   0.933   1.003   0.967   0.906   0.904   0.895   0.873   0.935   0.949   0.914   0.912   0.962   0.870   1.001   0.985   0.979   1.020   0.971   0.936   1.009   1.105   1.050   1.090   0.998   1.013   0.932   0.939   0.925   1.046   1.051   0.971   1.003   1.040   1.098   1.109   1.095   0.961   0.967   0.880   0.935
   121.00    0.890   0.966   0.949   0.976   0.835   0.943   0.912   0.928   0.868   0.897   0.912   0.892   0.970   0.910   0.970   0.982   1.011   0.970   0.954   0.999   0.979   1.023   0.963   1.050   1.033   1.048   1.028   0.926   0.848   1.032   1.119   1.075   0.973   0.928   1.001   1.032   1.061   1.037   0.966   0.971   1.015
   111.00    0.997   0.966   0.930   0.867   0.903   0.944   0.928   0.847   0.920   0.873   0.996   0.939   0.838   1.002   0.955   0.888   0.996   1.009   0.998   0.920   0.922   0.992   1.058   1.049   1.035   1.072   1.045   1.025   0.850   0.942   1.065   1.146   0.902   1.061   1.035   0.981   1.013   0.985   0.985   0.985   1.066
   101.00    0.921   0.969   0.884   0.830   0.876   0.928   0.861   0.843   0.867   0.884   0.906   0.940   0.803   0.963   0.927   0.927   0.967   0.981   0.927   0.968   0.950   0.967   1.093   1.093   1.133   1.042   1.013   0.940   1.003   0.957   1.028   1.061   0.995   1.038   1.147   1.003   0.943   1.025   1.039   1.019   0.974
    91.00    0.821   0.929   0.840   0.839   0.834   0.854   0.880   0.761   0.825   0.875   0.940   0.837   0.881   0.943   0.894   0.918   0.963   0.950   0.940   0.876   0.974   0.955   1.083   1.024   1.119   1.071   0.971   1.056   0.940   1.022   1.020   1.038   1.055   1.091   1.124   0.962   0.969   0.944   1.017   1.077   0.932
    81.00    0.806   0.834   0.856   0.895   0.871   0.804   0.808   0.910   0.778   0.851   0.877   0.848   0.946   0.955   0.978   0.914   0.888   0.948   1.011   0.946   0.883   0.925   1.060   1.067   1.027   1.022   1.011   0.978   1.046   1.035   1.004   1.081   0.968   1.075   1.189   1.116   0.960   1.024   0.964   0.956   0.962
    71.00    0.896   0.825   0.803   0.834   0.783   0.882   0.884   1.009   0.792   0.782   0.837   0.866   0.916   0.835   0.969   0.941   0.772   0.873   1.005   1.011   0.943   0.912   1.076   1.036   1.104   1.038   1.068   1.000   1.036   1.129   1.061   1.094   0.976   1.085   1.230   1.144   1.100   1.000   0.990   0.971   0.979
    61.00    0.867   0.828   0.808   0.830   0.835   0.844   0.866   0.875   0.889   0.818   0.881   0.895   0.893   0.936   0.956   0.922   0.863   0.824   0.979   0.969   1.015   1.024   1.159   1.032   1.009   1.073   0.964   1.007   0.997   1.171   1.074   1.035   1.112   1.107   1.128   1.221   1.175   1.091   0.983   0.897   0.928
    51.00    0.997   0.924   0.813   0.873   0.934   0.974   0.824   0.806   0.921   0.849   1.000   0.891   0.896   0.933   0.921   0.992   0.873   0.867   0.996   1.028   1.062   1.073   1.008   1.097   0.951   0.928   0.960   0.924   1.016   1.173   1.092   1.035   1.042   0.947   1.099   1.164   1.139   1.155   0.970   0.862   0.851
    41.00    1.007   0.904   0.836   0.924   0.904   0.915   0.907   0.902   0.996   0.966   1.016   0.823   0.862   0.972   0.903   0.905   1.012   1.026   1.135   1.098   1.077   1.166   1.177   1.203   0.987   1.027   0.955   0.945   0.985   1.118   1.083   1.079   0.935   0.956   0.980   1.072   1.175   1.185   0.944   0.894   0.861
    31.00    1.182   1.076   1.033   0.900   0.905   0.918   0.857   1.029   1.005   0.997   0.984   0.911   0.849   0.915   0.913   0.884   0.958   1.070   1.128   1.052   1.144   1.181   1.106   1.197   1.064   1.036   0.986   1.018   0.985   1.117   1.127   0.968   0.833   0.870   0.921   1.002   1.081   1.063   0.947   1.015   0.965
    21.00    1.150   1.156   1.057   0.933   0.909   0.996   0.958   0.979   0.965   1.032   1.001   0.911   0.895   0.892   1.040   0.890   1.044   1.009   1.061   1.118   1.108   1.134   1.033   1.151   1.096   0.998   1.049   1.076   0.977   1.100   1.062   0.923   0.820   0.911   0.832   1.005   0.947   1.040   0.910   1.057   0.994
    11.00    1.051   1.040   1.019   0.834   0.978   0.927   0.964   0.899   1.075   1.026   0.928   0.876   0.915   0.925   1.024   0.893   0.930   1.034   1.025   1.088   1.072   1.062   1.021   1.039   1.088   0.970   1.022   1.026   1.102   1.052   0.980   0.850   0.849   0.870   0.998   0.993   1.039   1.059   1.041   0.940   0.964
     1.00    0.974   0.942   0.959   0.895   0.984   0.989   0.914   0.978   1.021   0.965   0.887   0.914   0.888   0.914   0.879   0.900   0.992   0.996   0.963   0.925   1.008   1.054   0.991   0.966   0.984   1.055   0.983   1.008   1.024   0.954   0.918   0.893   0.895   0.977   0.938   0.960   1.017   0.964   1.011   0.870   0.925

   Mean standard deviation across all grid points:
      u component:    0.956 m/s
      v component:    0.972 m/s
      w component:    0.984 m/s


U-component (X) statistics from the interpolated hub point:

   Mean =  10.0066 m/s
   TI   =  10.3330 %


Processing complete.  13.109 CPU seconds used.
