
This summary file was generated by TurbSim (from OpenFAST-v3.4.1) on 29-Nov-2024 at 15:51:51.


Runtime Options:

      2054  Random seed #1
         0  Random seed #2
         F  Output binary HH turbulence parameters?
         F  Output formatted turbulence parameters?
         F  Output AeroDyn HH files?
         T  Output AeroDyn FF files?
         F  Output BLADED FF files?
         F  Output tower data?
         F  Output HAWC FF files?
         F  Output formatted FF files?
         T  Output coherent turbulence time step file?
 0 -  NONE  IEC turbulence models scaled to exact specified standard deviation


Turbine/Model Specifications:

        31  Vertical grid-point matrix dimension
        41  Horizontal grid-point matrix dimension
     0.100  Time step [seconds]
   200.000  Analysis time [seconds]
   200.000  Usable output time [seconds]
   151.000  Hub height [m]
   300.000  Grid height [m]
   600.000  Grid width [m]
     0.000  Vertical flow angle [degrees]
     0.000  Horizontal flow angle [degrees]


Meteorological Boundary Conditions:

    IECVKM  IEC von Karman spectral model
         1  IEC standard: IEC 61400-1 Ed. 2: 1999
    10.000  Percent turbulence intensity, IEC 61400-1 Ed. 2: 1999
       NTM  IEC Normal Turbulence Model
       N/A  IEC Extreme Turbulence Model (ETM) "c" parameter [m/s]
       PL   Wind profile type
   150.000  Reference height [m]
    10.000  Reference wind speed [m/s]
       N/A  Jet height [m]
     0.100  Power law exponent
     0.030  Surface roughness length [m]


Non-IEC Meteorological Boundary Conditions:

       N/A  Site latitude [degrees]
       N/A  Gradient Richardson number
       N/A  Friction or shear velocity [m/s]
       N/A  Mixing layer depth [m]
       N/A  Mean hub u'w' Reynolds stress
       N/A  Mean hub u'v' Reynolds stress
       N/A  Mean hub v'w' Reynolds stress


Spatial Coherence Models:

       IEC  u-component coherence model
       IEC  v-component coherence model
       IEC  w-component coherence model
(   12.000, 0.659E-03)  u-component coherence parameters
(   12.000, 0.659E-03)  v-component coherence parameters
(   12.000, 0.659E-03)  w-component coherence parameters
       N/A  Coherence exponent


You have requested that the following file(s) be generated:

   ./TurbulentWind_30WT/FOWTs/Wind\InflowWind_High_WT30.bts (AeroDyn/TurbSim full-field wind file)


Turbulence Simulation Scaling Parameter Summary:

   Turbulence model used                            =  IEC von Karman
   Turbulence characteristic                        =  User-specified
   IEC standard                                     =  IEC 61400-1 Ed. 2: 1999
   Mean wind speed at hub height                    =   10.007 m/s
   Characteristic value of standard deviation       =    1.001 m/s
   Turbulence scale                                 =   21.000 m
   Isotropic integral scale                         =   73.500 m
   Characteristic value of hub turbulence intensity =   10.000%
   Gradient Richardson number                       =    0.000

   Wind profile type                                =  Power law
   Power law exponent                               =    0.100
   Mean shear across rotor disk                     =    0.016 (m/s)/m
   Assumed rotor diameter                           =  300.000 m
   Surface roughness length                         =    0.030 m

   Nyquist frequency of turbulent wind field        =    5.000 Hz

   Number of time steps in the FFT                  =     2600
   Number of time steps output                      =     2600
   Number of points simulated                       =     1271


Mean Flow Angles:

   Vertical   =   0.0 degrees
   Horizontal =   0.0 degrees

Mean Wind Speed Profile:

   Height    Wind Speed   Horizontal Angle  Vertical Angle  U-comp (X)   V-comp (Y)   W-comp (Z)
     (m)        (m/s)         (degrees)       (degrees)       (m/s)        (m/s)        (m/s)   
   ------    ----------   ----------------  --------------  ----------   ----------   ----------
    301.0       10.72            0.00            0.00         10.72         0.00         0.00
    291.0       10.69            0.00            0.00         10.69         0.00         0.00
    281.0       10.65            0.00            0.00         10.65         0.00         0.00
    271.0       10.61            0.00            0.00         10.61         0.00         0.00
    261.0       10.57            0.00            0.00         10.57         0.00         0.00
    251.0       10.53            0.00            0.00         10.53         0.00         0.00
    241.0       10.49            0.00            0.00         10.49         0.00         0.00
    231.0       10.44            0.00            0.00         10.44         0.00         0.00
    221.0       10.40            0.00            0.00         10.40         0.00         0.00
    211.0       10.35            0.00            0.00         10.35         0.00         0.00
    201.0       10.30            0.00            0.00         10.30         0.00         0.00
    191.0       10.24            0.00            0.00         10.24         0.00         0.00
    181.0       10.19            0.00            0.00         10.19         0.00         0.00
    171.0       10.13            0.00            0.00         10.13         0.00         0.00
    161.0       10.07            0.00            0.00         10.07         0.00         0.00
    151.0       10.01            0.00            0.00         10.01         0.00         0.00
    141.0        9.94            0.00            0.00          9.94         0.00         0.00
    131.0        9.87            0.00            0.00          9.87         0.00         0.00
    121.0        9.79            0.00            0.00          9.79         0.00         0.00
    111.0        9.70            0.00            0.00          9.70         0.00         0.00
    101.0        9.61            0.00            0.00          9.61         0.00         0.00
     91.0        9.51            0.00            0.00          9.51         0.00         0.00
     81.0        9.40            0.00            0.00          9.40         0.00         0.00
     71.0        9.28            0.00            0.00          9.28         0.00         0.00
     61.0        9.14            0.00            0.00          9.14         0.00         0.00
     51.0        8.98            0.00            0.00          8.98         0.00         0.00
     41.0        8.78            0.00            0.00          8.78         0.00         0.00
     31.0        8.54            0.00            0.00          8.54         0.00         0.00
     21.0        8.22            0.00            0.00          8.22         0.00         0.00
     11.0        7.70            0.00            0.00          7.70         0.00         0.00
      1.0        6.06            0.00            0.00          6.06         0.00         0.00


Harvested Random Seeds after Generation of the Random Numbers:

    705788789 Harvested seed # 1
   1971657505 Harvested seed # 2


Hub-Height Simulated Turbulence Statistical Summary:

   Type of Wind        Min (m/s)   Mean (m/s)    Max (m/s)  Sigma (m/s)       TI (%)
   ----------------    ---------   ----------    ---------  -----------       ------
   Longitudinal (u)         7.14        10.01        13.02        0.982        9.810
   Lateral (v)             -2.98         0.00         3.28        1.047       10.458
   Vertical (w)            -2.69        -0.00         2.68        0.872        8.712
   U component              7.14        10.01        13.02        0.982        9.810
   V component             -2.98         0.00         3.28        1.047       10.458
   W component             -2.69        -0.00         2.68        0.872        8.712
   Horizontal (U&V)         7.24        10.06        13.04        0.984        9.776
   Total                    7.33        10.10        13.05        0.984        9.746

                       Min Reynolds     Mean Reynolds    Max Reynolds    Correlation
   Product             Stress (m/s)^2   Stress (m/s)^2   Stress (m/s)^2  Coefficient
   ----------------    --------------   --------------   --------------  -----------
   u'w'                     -4.130            -0.034             3.751        -0.040
   u'v'                     -3.885             0.295             5.398         0.288
   v'w'                     -7.179             0.081             3.777         0.089


   Friction Velocity (Ustar)  =      0.184 m/s
   Maximum Instantaneous TKE  =      9.134 (m/s)^2
   Maximum Instantaneous CTKE =      4.837 (m/s)^2


Grid Point Variance Summary:

   Y-coord -300.00 -285.00 -270.00 -255.00 -240.00 -225.00 -210.00 -195.00 -180.00 -165.00 -150.00 -135.00 -120.00 -105.00  -90.00  -75.00  -60.00  -45.00  -30.00  -15.00    0.00   15.00   30.00   45.00   60.00   75.00   90.00  105.00  120.00  135.00  150.00  165.00  180.00  195.00  210.00  225.00  240.00  255.00  270.00  285.00  300.00

   Height   Standard deviation at grid points for the u component:
   301.00    0.942   0.866   1.001   1.008   0.981   0.877   0.889   0.959   0.953   0.870   0.868   0.885   0.846   0.937   0.932   1.104   1.064   0.860   0.961   0.853   0.905   0.853   0.870   0.852   0.894   0.911   1.009   1.048   1.130   1.031   1.063   0.997   0.922   0.948   0.841   0.926   0.938   0.839   0.789   0.828   0.997
   291.00    0.844   0.874   0.918   1.001   1.074   0.911   0.979   0.961   0.845   0.818   0.874   0.968   0.739   0.938   1.006   1.116   1.038   0.823   0.937   0.879   0.840   0.874   0.864   0.868   0.928   0.901   0.907   1.063   1.150   1.042   0.948   1.023   0.892   0.903   0.912   0.900   0.941   0.865   0.864   0.955   0.942
   281.00    1.010   0.907   0.908   0.960   1.028   0.992   0.982   1.042   1.011   0.846   0.835   0.926   0.813   0.971   1.108   1.076   0.973   0.871   0.946   0.852   0.793   0.909   0.993   1.025   0.991   0.963   1.026   1.029   1.088   1.080   0.979   0.892   0.781   0.849   0.997   0.987   1.049   0.888   0.839   1.041   0.930
   271.00    0.991   0.942   0.865   0.876   0.839   0.945   0.951   0.970   0.990   0.901   0.932   0.851   0.892   1.000   1.038   1.162   0.932   1.143   0.910   0.927   0.863   0.877   0.947   1.014   1.060   1.078   1.098   0.988   1.025   0.949   0.930   0.917   0.886   0.972   1.008   0.999   0.948   0.976   0.937   1.003   0.952
   261.00    0.918   0.831   0.828   0.826   0.812   0.918   0.919   1.002   0.876   0.870   0.883   0.878   0.929   1.041   1.054   1.050   1.019   1.037   0.911   0.862   0.849   0.929   1.085   0.992   1.020   0.995   1.063   1.010   1.039   1.052   0.943   0.896   1.000   1.025   0.988   0.958   0.918   0.865   0.951   0.914   0.932
   251.00    0.955   0.871   0.820   0.878   0.890   0.941   0.834   0.886   0.951   0.833   0.809   0.898   0.931   0.972   0.963   1.000   0.950   0.986   1.030   0.985   0.963   1.052   1.088   1.055   0.995   0.952   1.050   0.985   1.091   1.019   0.991   0.797   0.868   1.022   1.022   0.969   0.956   0.993   0.784   0.840   0.815
   241.00    0.859   0.830   0.878   0.935   0.885   0.940   0.741   0.717   0.910   0.877   0.820   0.918   0.901   0.920   1.038   0.933   0.987   1.039   0.942   0.938   0.972   1.130   1.009   1.095   0.978   1.005   0.983   0.939   1.066   0.944   0.972   0.964   0.929   1.016   1.065   0.966   0.888   0.967   0.902   0.825   0.852
   231.00    0.858   0.866   0.896   0.966   0.886   0.936   0.663   0.796   0.824   0.950   0.923   0.926   0.892   0.897   0.932   0.987   0.926   0.999   0.982   0.935   1.135   1.076   1.158   1.065   0.951   0.977   0.925   0.995   0.925   0.965   1.010   0.937   0.855   1.025   0.957   1.007   1.007   0.982   0.973   0.885   0.841
   221.00    0.903   0.829   0.941   0.909   0.979   0.927   0.817   0.869   0.800   0.996   0.891   0.817   0.852   0.772   0.920   0.910   1.007   1.071   1.107   0.951   1.132   1.141   1.059   0.939   0.971   0.951   1.004   0.965   0.788   0.837   0.851   0.902   1.051   1.007   0.989   1.017   0.962   1.029   0.957   0.785   0.921
   211.00    0.837   0.857   0.803   0.884   0.930   0.999   0.880   0.889   0.799   0.861   0.876   0.811   0.817   0.947   0.913   0.948   1.089   1.099   1.137   1.226   1.139   1.160   0.955   0.951   0.926   0.979   0.935   0.887   0.804   0.700   0.750   0.858   1.058   1.082   0.992   1.060   0.922   0.921   0.932   0.895   0.923
   201.00    0.815   0.815   0.783   0.776   0.869   1.013   0.863   0.890   0.844   0.801   0.713   0.776   0.875   0.930   0.956   0.919   1.100   1.099   1.148   1.065   1.132   1.188   0.988   0.893   0.829   0.889   0.949   0.975   0.849   0.820   0.895   0.939   1.110   0.999   0.942   0.946   0.840   0.813   0.850   0.921   0.898
   191.00    0.953   0.789   0.822   0.783   0.837   0.904   0.949   0.951   0.914   0.756   0.742   0.832   0.782   0.876   1.032   0.945   1.068   1.018   1.016   1.028   1.145   1.143   1.132   1.152   0.771   0.882   0.949   0.987   1.001   0.841   0.929   1.032   1.093   1.140   0.967   0.800   0.798   0.716   0.846   0.876   0.996
   181.00    0.877   0.856   0.874   0.872   0.872   0.918   0.992   1.012   0.876   0.678   0.790   0.836   0.719   0.898   1.001   0.977   1.026   1.044   1.027   1.079   0.967   1.121   1.063   1.078   0.929   0.740   0.824   0.891   0.921   0.916   0.960   0.947   0.909   1.004   0.972   0.854   0.823   0.761   0.771   0.728   0.938
   171.00    0.931   0.873   0.825   0.859   0.923   0.943   1.025   0.884   0.833   0.830   0.795   0.837   0.806   0.844   0.906   0.864   0.964   0.991   0.934   1.077   1.093   1.059   1.063   1.080   0.923   0.899   0.834   0.880   0.938   0.825   0.887   0.923   0.977   0.958   0.898   0.951   0.877   0.862   0.853   0.726   0.887
   161.00    0.918   0.814   0.770   0.903   1.016   1.074   0.895   0.886   0.982   0.910   0.893   0.844   0.775   0.868   0.802   0.964   0.989   1.025   1.101   1.051   1.012   1.153   1.206   1.157   0.928   0.949   0.918   0.867   0.899   0.815   0.851   0.858   0.910   0.923   0.975   0.841   0.951   0.900   0.885   0.843   0.961
   151.00    0.922   0.852   0.833   0.853   0.954   0.975   0.976   0.959   0.966   0.824   0.872   0.785   0.862   0.809   0.874   0.853   1.039   0.966   1.013   0.996   0.982   1.079   1.114   1.185   0.882   0.942   1.007   0.924   0.821   0.844   0.841   0.811   0.938   0.931   0.942   0.871   0.864   0.814   0.848   0.813   0.929
   141.00    0.855   0.842   0.907   0.941   0.962   0.934   0.952   0.899   0.873   0.856   0.887   0.836   0.870   0.824   0.859   0.851   0.892   0.956   0.975   1.002   1.120   1.090   1.169   1.100   1.035   0.863   0.991   0.897   0.889   0.853   0.857   0.772   0.902   0.942   0.858   0.824   0.809   0.762   0.903   0.873   0.911
   131.00    0.805   0.809   1.012   0.904   0.970   0.913   0.896   0.854   0.859   0.818   0.906   0.928   0.831   0.866   0.936   0.913   0.869   0.947   0.967   1.142   1.110   0.958   1.076   1.111   0.883   0.859   0.924   0.859   0.972   0.906   0.866   0.742   0.897   0.866   0.817   0.822   0.739   0.836   0.846   0.863   0.869
   121.00    0.854   0.881   0.935   0.956   0.860   0.865   0.900   0.947   0.869   0.851   0.974   0.887   0.801   0.846   0.849   0.867   0.847   0.914   0.995   1.086   1.038   0.968   1.048   1.050   0.993   0.831   0.824   0.876   0.982   0.959   0.927   0.919   0.795   0.895   0.823   0.814   0.706   0.813   0.773   0.799   0.843
   111.00    0.797   0.953   0.985   0.944   0.882   0.841   0.791   0.902   0.748   0.857   0.896   0.926   0.842   0.847   0.837   0.795   0.841   0.841   1.080   1.032   0.969   0.916   0.979   0.988   0.908   0.874   0.926   0.844   0.970   1.027   0.970   0.931   0.855   0.965   0.969   0.825   0.690   0.751   0.756   0.821   0.776
   101.00    0.891   1.051   0.948   0.846   0.874   0.757   0.842   0.755   0.792   0.768   0.930   0.968   0.800   0.889   0.861   0.954   0.832   0.985   1.092   1.175   0.996   0.981   1.051   0.895   0.927   0.861   0.962   0.948   0.844   0.984   1.001   0.880   0.917   0.976   1.091   0.841   0.808   0.841   0.740   0.807   0.859
    91.00    0.979   0.957   1.001   0.868   0.860   0.794   0.799   0.858   0.818   0.744   0.861   0.945   0.906   0.786   0.896   0.859   0.888   0.993   1.172   1.213   1.019   0.930   0.923   0.891   0.867   0.866   0.986   0.937   0.816   0.901   0.980   1.014   1.054   1.121   1.051   0.864   0.820   0.775   0.719   0.799   0.972
    81.00    0.930   0.924   0.966   0.841   0.817   0.733   0.745   0.784   0.794   0.779   0.845   0.903   0.822   0.847   0.869   0.929   0.947   0.931   1.081   1.153   1.130   1.060   0.955   0.871   0.782   0.768   0.929   0.984   0.814   1.025   1.002   1.036   1.153   1.005   0.929   0.904   0.804   0.866   0.825   0.870   0.967
    71.00    1.013   0.883   0.878   0.822   0.769   0.763   0.792   0.833   0.868   0.936   0.851   0.985   0.737   0.886   0.888   0.951   0.866   0.943   0.983   1.053   1.083   0.988   1.015   0.817   0.769   0.724   0.834   1.008   0.971   1.067   0.998   1.081   1.126   1.042   0.942   0.854   0.812   0.852   0.871   0.872   0.948
    61.00    1.056   0.876   0.931   0.970   0.840   0.792   0.892   0.914   0.973   0.928   0.917   1.006   0.824   0.881   0.914   0.952   0.919   0.921   0.931   1.010   0.967   0.887   1.033   0.984   0.800   0.846   0.883   0.940   0.919   0.950   0.924   1.037   1.031   0.909   0.959   0.849   0.895   0.943   0.798   0.938   1.037
    51.00    1.010   0.848   0.914   0.994   0.910   0.854   0.842   0.946   1.080   0.995   0.882   0.856   0.841   0.903   0.912   0.999   0.961   1.091   1.087   1.080   1.039   1.001   1.098   0.921   0.988   0.972   0.851   0.970   0.859   0.808   0.943   0.970   1.037   0.904   0.899   0.909   0.885   0.962   0.864   0.959   1.093
    41.00    0.994   0.952   1.000   1.021   0.884   0.938   0.831   0.900   0.934   0.929   0.860   0.928   0.824   0.881   0.916   0.926   0.964   0.986   0.980   0.946   0.956   1.000   0.975   0.966   1.013   1.006   0.924   0.925   0.980   0.920   0.924   0.950   1.035   0.884   0.889   0.901   0.924   0.891   0.954   1.020   1.015
    31.00    1.039   0.942   0.908   0.903   0.820   0.849   0.806   0.891   1.030   0.975   0.854   0.904   0.864   0.899   0.950   0.807   0.867   0.967   0.890   0.856   1.047   1.092   1.106   0.950   0.962   0.996   0.992   0.993   1.035   0.985   1.031   1.020   0.880   0.861   0.787   0.910   0.980   0.804   0.839   0.981   1.115
    21.00    0.942   0.864   0.847   0.818   0.862   0.717   0.734   0.868   0.939   0.955   0.832   0.904   0.948   0.942   0.891   0.752   0.836   0.887   0.850   0.918   1.114   1.060   1.086   0.935   1.103   1.005   0.943   0.995   0.906   0.912   0.995   0.891   0.917   0.761   0.886   0.875   0.929   0.774   0.750   0.822   0.936
    11.00    0.891   1.007   0.850   0.788   0.803   0.856   0.839   0.846   0.904   0.868   0.950   0.925   0.854   0.983   0.883   0.879   0.880   0.940   0.991   1.002   1.120   1.061   1.034   1.032   1.169   1.057   1.041   1.002   0.869   0.901   0.900   0.822   0.811   0.831   0.926   0.815   0.859   0.921   0.926   0.899   0.896
     1.00    0.963   0.965   0.995   0.808   0.796   0.856   0.832   0.889   0.951   1.022   1.013   1.125   1.059   1.017   0.954   0.959   0.954   0.949   0.980   1.017   1.061   1.021   1.136   1.092   1.154   0.932   0.976   0.971   0.887   0.853   0.840   0.931   0.979   0.896   0.924   0.769   0.803   0.866   0.853   0.925   0.903

   Height   Standard deviation at grid points for the v component:
   301.00    0.960   0.975   0.933   0.835   1.072   1.001   1.033   1.102   1.081   0.969   0.879   0.811   0.872   0.852   0.931   0.961   0.959   0.990   0.989   1.017   1.034   1.048   0.921   0.811   0.968   0.954   1.029   1.072   1.116   1.051   0.881   0.927   0.917   0.877   0.882   0.918   0.978   1.104   1.043   0.946   0.875
   291.00    0.934   1.019   1.015   0.942   1.051   1.097   1.026   1.065   1.069   1.039   0.951   0.943   0.910   0.831   0.916   0.967   0.944   0.963   0.915   0.932   0.974   1.088   1.031   0.867   1.074   1.026   1.008   1.063   1.110   1.083   0.998   0.948   0.977   0.937   0.863   0.838   1.042   1.044   1.013   0.884   1.028
   281.00    0.913   0.931   1.010   1.057   1.120   1.062   1.096   1.128   0.970   1.020   0.973   0.964   0.911   0.857   0.877   1.012   0.940   0.855   0.934   0.873   0.950   1.078   1.066   0.993   1.061   1.094   0.942   1.074   1.115   1.022   1.103   1.056   0.972   0.992   0.922   0.983   1.076   1.027   0.994   1.051   1.006
   271.00    0.956   1.029   1.018   1.059   1.067   1.133   1.047   1.096   1.106   1.117   0.955   1.044   0.938   0.861   0.916   0.938   0.934   0.974   0.890   0.930   0.991   1.118   1.119   1.043   0.969   1.029   1.070   1.044   1.104   1.041   1.014   1.087   0.974   0.972   0.984   1.005   1.167   1.043   0.975   1.052   1.149
   261.00    1.149   1.063   1.038   1.050   1.054   0.972   1.099   1.091   1.077   1.059   1.055   1.021   0.971   0.962   0.970   0.985   1.013   0.994   0.914   0.947   0.990   0.972   1.061   1.007   0.959   0.963   1.032   1.027   1.098   1.020   1.022   1.046   1.018   0.987   0.903   1.103   1.168   1.112   0.925   1.060   1.037
   251.00    1.018   1.132   1.087   1.081   1.020   0.942   1.064   1.069   1.018   1.011   1.065   1.019   1.094   1.005   0.973   0.960   0.975   0.906   0.983   1.054   0.954   1.010   1.165   0.993   0.974   0.945   0.978   1.076   0.982   0.962   1.024   1.033   1.060   0.969   0.993   1.031   1.105   1.012   0.911   0.978   0.900
   241.00    1.016   1.143   1.089   1.100   1.033   1.020   1.005   1.021   0.990   0.955   1.026   0.994   0.987   1.018   0.949   0.908   1.006   0.905   0.931   0.965   0.993   0.964   1.117   1.036   0.993   0.931   0.870   1.030   1.136   1.014   1.009   1.049   0.998   0.958   0.994   1.029   1.011   0.942   0.848   0.938   0.861
   231.00    0.968   1.024   1.009   0.947   0.941   0.937   0.969   1.045   1.021   1.106   1.094   0.959   0.947   1.088   1.032   0.928   0.981   0.926   1.045   0.905   0.941   1.180   1.160   1.141   1.075   1.000   0.954   1.046   1.026   1.020   1.038   1.144   1.027   0.932   0.949   0.973   1.010   0.902   0.961   0.951   0.887
   221.00    1.013   0.979   0.959   0.893   0.978   1.035   0.933   0.922   0.997   1.013   0.969   0.953   0.942   0.988   1.080   1.034   0.994   0.976   1.033   1.169   0.968   1.136   1.217   1.106   1.076   0.926   0.931   1.026   1.016   1.072   1.117   1.076   1.049   1.100   1.054   0.975   0.980   0.942   0.972   0.893   0.941
   211.00    0.995   0.994   0.882   0.836   0.902   1.051   0.973   0.906   1.003   1.038   0.924   0.960   0.889   0.944   1.013   1.016   0.977   0.933   0.974   1.137   1.183   1.161   1.042   1.121   1.121   1.045   0.931   1.034   1.009   1.011   1.022   1.078   1.143   1.121   1.119   0.937   0.985   1.016   1.002   0.915   0.990
   201.00    1.003   0.967   0.859   0.899   0.880   0.999   1.061   0.945   0.972   1.003   1.012   1.106   0.814   0.928   0.930   0.896   0.902   0.931   1.033   1.052   1.191   1.194   1.058   0.989   0.987   1.054   0.931   0.959   0.983   1.003   1.037   1.189   1.209   1.195   1.064   1.061   1.084   1.066   1.008   1.027   1.040
   191.00    0.908   0.956   0.969   0.905   0.944   1.056   1.065   1.109   0.995   0.976   0.885   0.986   1.008   0.975   0.915   0.949   0.842   0.867   1.004   1.087   1.150   1.109   1.021   1.017   1.049   0.965   0.954   0.859   0.936   1.001   1.100   1.225   1.239   1.073   0.991   0.978   1.020   0.958   0.978   0.995   1.025
   181.00    0.904   0.928   0.919   0.893   1.058   1.130   1.124   1.158   1.020   0.885   0.855   0.985   0.976   0.903   0.891   0.948   0.835   0.906   0.934   1.087   1.060   1.014   0.948   1.039   1.087   0.956   0.974   0.945   0.899   0.956   1.135   1.111   1.216   1.057   1.011   0.932   0.961   0.940   0.913   1.027   1.117
   171.00    0.963   0.937   0.984   0.913   0.982   1.123   0.992   1.054   0.933   0.819   0.891   0.964   0.890   0.917   0.909   0.936   0.977   0.961   1.011   1.002   1.111   1.019   0.882   0.943   1.051   1.067   0.979   0.907   0.971   1.032   0.996   1.127   1.159   1.052   1.029   0.931   0.950   0.975   1.027   1.006   1.144
   161.00    0.972   1.024   0.891   0.912   0.968   0.991   1.003   0.954   0.874   0.873   0.925   0.816   0.961   0.866   0.869   0.920   0.903   0.912   0.976   1.007   1.074   1.036   0.886   0.878   0.976   1.027   1.013   0.898   0.897   1.018   1.077   1.086   1.107   0.999   0.972   1.040   1.045   0.986   1.055   1.020   1.065
   151.00    0.941   1.002   0.954   0.836   0.933   0.884   0.900   0.884   0.899   0.869   0.925   0.856   0.992   1.043   0.846   0.935   0.915   0.926   0.920   1.064   1.047   0.919   0.830   0.832   0.973   1.071   0.975   0.870   0.881   0.971   1.048   1.108   1.022   0.951   1.007   0.956   1.038   0.970   0.999   0.934   0.938
   141.00    0.968   0.983   0.934   0.889   0.873   0.839   0.809   0.806   0.843   0.852   0.937   0.966   0.964   1.016   0.899   1.006   0.930   0.947   0.901   1.019   0.995   0.877   0.929   0.850   1.000   0.933   0.874   0.839   0.887   1.034   1.141   1.062   0.983   0.974   0.980   0.899   0.981   1.017   1.004   0.943   0.875
   131.00    0.985   0.947   0.911   0.897   0.852   0.969   0.815   0.895   0.845   0.991   0.967   0.967   1.008   1.003   0.978   1.037   1.105   0.972   0.993   0.973   1.034   0.898   0.957   0.925   0.931   0.950   0.922   0.830   0.897   0.973   1.065   0.953   0.925   0.850   0.880   0.907   0.878   0.957   1.025   0.937   0.961
   121.00    1.015   0.995   0.930   0.908   0.835   0.921   0.929   0.818   0.887   0.883   0.968   1.015   0.938   0.910   1.050   0.978   1.016   1.012   1.008   0.986   0.895   0.902   0.954   0.969   0.902   0.988   1.067   0.910   0.925   1.065   1.087   0.942   0.963   0.830   0.913   0.815   0.950   0.952   1.069   0.966   0.871
   111.00    0.993   1.006   0.956   0.907   0.811   0.862   0.841   0.827   0.892   0.934   1.017   1.069   1.051   1.074   0.948   0.894   0.907   0.960   1.091   1.036   1.019   0.985   1.003   0.983   0.918   1.044   1.050   1.016   0.958   1.115   1.070   0.991   0.968   0.886   0.951   0.950   0.919   0.975   0.980   0.985   0.812
   101.00    1.040   1.013   0.960   0.897   0.906   0.888   0.849   0.811   0.817   0.866   1.031   0.920   0.982   0.918   0.947   0.978   0.910   0.846   1.005   1.099   1.142   0.991   0.993   1.051   1.008   1.040   0.997   0.936   1.089   1.151   1.040   1.017   1.083   0.952   1.051   1.010   0.969   0.976   0.864   0.982   0.906
    91.00    0.961   0.952   1.096   0.995   0.928   0.957   0.876   0.887   0.859   0.937   0.957   0.885   0.931   0.985   0.907   0.899   0.886   0.866   0.990   1.084   1.064   1.021   0.963   1.141   1.029   0.947   0.929   0.958   1.088   1.174   0.989   0.970   1.043   1.003   0.968   0.979   0.832   0.944   0.940   0.930   0.951
    81.00    0.842   0.879   1.038   1.020   0.928   0.959   0.891   0.873   0.874   0.946   0.897   0.916   0.905   0.977   0.980   0.970   0.883   0.959   0.960   1.057   1.079   1.010   1.078   1.111   1.102   0.876   0.900   0.882   1.081   1.147   1.073   1.076   1.001   0.902   0.987   0.916   0.862   0.860   0.901   1.002   0.987
    71.00    0.946   0.951   1.027   1.084   0.800   0.982   0.900   0.761   0.856   0.965   0.921   0.819   0.897   0.963   1.004   0.970   0.882   0.866   0.958   1.108   1.119   1.052   0.993   0.964   0.986   0.868   0.898   1.067   1.092   1.050   1.061   0.966   0.941   0.890   1.033   0.923   0.943   0.870   0.938   1.009   0.980
    61.00    0.917   0.975   1.021   1.041   0.896   1.008   0.932   0.864   0.886   0.938   0.915   0.843   0.913   0.968   0.912   0.821   0.871   0.972   1.051   1.061   1.112   1.035   0.975   0.923   0.976   0.869   0.969   0.992   1.027   0.971   0.952   0.944   1.006   0.871   0.980   1.020   0.947   0.955   0.996   1.044   1.071
    51.00    0.951   0.938   1.027   1.131   0.952   0.930   0.940   1.035   0.910   0.905   0.920   0.884   1.009   0.915   0.834   0.892   0.944   1.090   1.171   1.087   0.976   0.975   1.089   0.890   0.940   0.810   0.884   1.001   1.092   0.957   0.971   0.892   0.936   0.964   0.971   0.899   0.948   1.061   1.030   1.076   1.089
    41.00    0.954   0.827   0.895   1.003   0.942   0.891   0.913   1.026   0.986   1.020   0.951   0.911   0.985   1.002   0.928   0.829   0.930   1.068   1.023   1.042   1.031   0.970   0.959   0.898   0.955   1.001   0.960   0.934   1.091   1.067   1.018   0.937   0.971   0.929   0.996   0.967   0.969   1.049   1.116   1.123   1.082
    31.00    0.827   0.949   0.995   0.904   0.870   0.796   0.851   1.053   0.957   1.027   0.895   1.009   0.994   1.004   1.022   0.958   0.910   1.001   0.977   1.032   0.934   1.012   0.973   0.955   1.001   0.947   1.008   1.043   1.096   1.078   1.037   0.838   0.918   0.948   1.056   1.060   0.982   0.949   1.036   0.964   1.028
    21.00    0.904   0.880   1.003   0.940   0.921   0.921   0.974   0.878   0.948   1.039   1.056   0.958   1.071   0.864   1.012   0.889   0.928   0.968   0.880   1.021   0.916   0.949   1.025   0.958   0.933   1.065   1.098   0.978   1.054   1.072   1.014   0.923   0.915   1.087   1.012   1.103   1.072   0.920   0.980   1.083   0.936
    11.00    0.922   0.957   0.993   0.906   0.997   0.995   0.955   0.951   0.815   0.941   0.923   0.947   0.940   0.935   0.991   0.850   0.959   1.010   1.034   1.016   0.951   0.899   0.979   0.955   0.995   1.004   1.017   1.032   0.959   1.109   1.112   0.966   0.897   1.019   1.116   1.223   1.023   1.026   0.884   0.962   0.964
     1.00    0.974   1.044   0.989   1.024   0.961   1.000   0.951   0.899   0.831   0.877   0.948   0.948   0.990   0.940   0.910   0.988   0.969   0.944   1.006   0.907   0.957   0.990   1.035   0.926   0.951   0.970   0.924   1.016   1.029   1.070   1.053   0.918   0.950   1.000   1.026   1.102   1.020   1.057   0.882   0.879   0.953

   Height   Standard deviation at grid points for the w component:
   301.00    0.863   0.886   0.909   0.930   1.012   0.908   0.976   0.993   0.957   0.903   0.840   0.906   0.966   0.981   0.955   0.957   0.988   0.872   0.795   0.840   0.910   0.926   1.069   0.943   0.900   0.930   1.039   1.117   0.941   0.846   0.896   0.919   0.874   1.015   0.956   0.892   0.975   0.899   1.040   1.097   1.062
   291.00    0.816   0.903   0.908   0.889   0.984   0.857   0.942   0.884   0.948   0.908   0.916   0.914   0.955   0.987   0.917   0.936   0.922   0.783   0.775   0.882   0.860   0.998   1.016   1.038   0.916   0.981   0.971   0.988   0.976   0.967   0.920   0.979   0.919   0.949   1.019   0.967   1.007   0.870   1.122   1.027   1.045
   281.00    0.858   1.013   0.930   0.842   0.931   0.963   0.880   0.842   0.877   0.896   0.903   0.939   0.875   0.997   1.007   0.934   0.908   0.750   0.884   0.831   0.905   0.922   0.960   0.959   0.980   0.830   0.929   0.929   0.921   0.973   1.026   0.955   0.975   0.962   0.989   0.936   0.978   0.967   1.066   1.118   1.085
   271.00    0.892   1.016   1.036   0.944   0.987   0.897   0.913   0.976   0.869   0.961   0.939   0.892   0.891   1.018   0.998   0.951   0.884   0.958   0.880   0.901   0.879   0.921   0.952   0.826   0.973   0.877   0.853   0.985   0.895   1.020   1.008   0.997   0.927   1.028   0.990   0.997   0.993   0.905   1.014   1.102   1.120
   261.00    0.915   0.926   0.947   0.875   0.842   0.851   0.878   0.856   0.901   0.917   0.917   0.856   0.928   1.014   0.972   1.051   0.910   0.951   0.894   0.837   0.889   0.963   0.951   0.917   0.917   0.963   0.924   0.961   0.941   0.956   1.006   0.999   1.006   1.011   0.968   0.955   0.944   0.948   0.995   1.072   1.116
   251.00    0.927   0.905   0.917   0.967   0.951   0.865   0.799   0.820   0.920   0.904   0.916   0.884   0.909   1.075   0.998   0.892   0.937   0.911   0.938   0.890   0.936   0.990   0.843   0.897   0.880   0.928   0.907   1.016   0.960   1.016   1.019   0.978   1.031   0.933   0.969   0.918   0.908   0.958   1.048   1.074   1.058
   241.00    0.940   0.951   0.869   1.051   0.959   0.892   0.852   0.848   0.878   0.930   0.978   0.951   0.993   0.985   0.995   0.952   0.960   0.836   0.943   0.884   0.941   0.948   0.814   0.937   0.861   0.890   0.988   1.072   0.977   1.042   1.046   0.947   1.016   0.972   0.969   0.982   0.937   1.073   0.959   0.974   1.008
   231.00    1.020   0.988   0.930   1.010   0.983   0.921   0.914   0.871   0.862   0.859   0.938   0.904   1.088   1.111   1.068   1.000   0.907   0.875   0.891   0.887   0.949   0.969   0.861   0.901   0.815   0.872   1.037   1.093   1.035   1.097   1.130   0.966   1.069   0.955   1.011   0.927   1.068   1.122   1.090   1.035   1.019
   221.00    1.091   1.077   1.085   0.864   0.874   0.915   0.935   0.920   0.959   0.942   0.831   0.874   1.008   1.109   1.038   0.980   0.878   0.865   0.943   0.971   0.970   0.960   0.952   0.914   0.796   0.825   1.041   1.055   1.060   1.079   1.108   0.970   1.072   1.011   0.980   0.997   0.993   0.981   1.081   1.031   1.073
   211.00    1.063   1.083   1.068   1.033   0.897   0.900   0.902   0.918   0.865   0.851   0.914   0.889   0.892   1.054   1.078   0.924   0.947   0.945   0.936   0.920   1.046   0.999   0.875   0.811   0.738   0.842   0.963   1.052   1.077   1.026   1.063   1.061   1.006   1.083   0.990   0.972   1.027   0.860   1.050   0.986   1.056
   201.00    1.085   1.094   1.041   0.975   0.953   0.943   0.880   0.936   0.846   0.868   0.862   0.935   0.903   1.039   0.993   0.936   0.947   0.904   0.854   0.926   0.990   0.882   0.873   0.915   0.858   0.907   0.877   0.979   0.996   0.966   0.925   0.996   0.955   0.991   1.115   1.056   1.037   0.961   0.957   0.954   0.903
   191.00    1.041   1.022   1.019   0.889   0.960   0.983   0.895   0.901   0.910   0.789   0.889   0.843   0.922   0.975   0.894   0.859   0.875   0.802   0.919   0.893   0.928   1.016   0.951   0.891   0.862   0.949   0.964   1.057   1.057   0.959   0.939   0.975   0.975   1.020   1.030   1.037   1.021   0.930   1.089   0.984   0.887
   181.00    0.996   1.015   1.073   1.011   1.013   0.852   0.912   0.913   0.861   0.856   0.875   0.809   0.818   0.833   0.923   0.939   0.851   0.953   0.934   0.936   0.881   0.966   0.948   0.906   0.971   0.971   1.090   1.024   1.100   1.062   0.967   0.898   1.026   1.045   0.914   0.928   0.932   0.843   1.043   0.962   0.885
   171.00    1.003   1.028   0.975   1.007   1.014   0.924   0.822   0.873   0.862   0.836   0.919   0.843   0.827   0.802   0.995   0.978   0.925   0.890   0.845   1.020   0.809   0.912   0.979   0.962   0.959   1.019   1.090   1.069   1.079   1.044   0.860   0.947   1.098   0.965   1.018   0.873   0.887   0.980   0.937   0.908   0.901
   161.00    0.980   0.998   0.989   1.075   0.970   0.969   0.835   0.912   0.816   0.846   0.850   0.788   0.856   0.870   0.998   0.940   0.961   0.975   0.837   0.932   0.896   0.851   0.926   0.839   0.954   1.027   0.946   0.941   0.942   1.038   0.999   0.933   1.068   0.959   0.939   0.856   0.905   0.979   0.902   0.957   0.884
   151.00    0.904   0.883   1.032   1.111   0.993   0.968   0.888   0.912   0.826   0.917   0.845   0.791   0.899   0.850   0.904   0.939   1.009   0.913   0.867   0.844   0.872   0.851   0.869   0.931   0.889   0.966   0.877   0.940   0.966   0.997   0.927   0.925   1.009   0.955   0.915   1.018   0.915   0.996   0.954   0.850   0.832
   141.00    0.870   0.866   0.897   0.986   1.012   1.001   1.051   1.080   0.959   0.905   0.915   0.786   0.920   0.869   0.906   0.939   0.917   0.843   0.948   0.876   0.877   0.902   0.907   0.891   0.919   0.899   0.997   0.974   0.935   1.015   1.000   1.037   1.056   0.904   0.880   0.862   0.940   1.030   0.907   0.954   0.931
   131.00    0.879   0.887   0.937   0.919   0.987   0.913   1.083   1.098   0.983   0.870   0.913   0.892   0.922   0.919   0.906   0.952   0.869   0.824   0.929   0.850   0.810   0.965   0.930   0.866   0.912   0.909   1.026   1.013   1.035   1.074   0.869   0.935   0.935   0.961   0.954   0.823   0.901   0.985   0.963   0.989   1.029
   121.00    0.881   0.980   0.969   1.005   1.029   0.934   1.045   1.043   0.958   0.973   0.960   0.913   0.946   0.861   0.897   0.879   0.798   0.823   0.851   0.905   0.776   0.886   1.012   0.880   0.913   0.980   0.936   1.000   1.022   0.977   0.939   0.957   0.970   0.914   0.886   0.840   0.851   0.932   0.884   0.875   1.067
   111.00    0.943   0.892   0.931   1.066   1.188   1.066   1.003   0.994   0.921   0.965   0.960   0.922   0.922   0.821   0.881   0.825   0.843   0.849   0.852   0.816   0.846   0.950   1.057   0.958   0.967   1.029   0.862   0.999   1.025   0.968   1.002   0.944   0.999   0.890   0.930   0.878   0.880   0.818   0.942   0.919   1.003
   101.00    0.944   1.067   0.993   1.046   1.071   1.077   1.015   0.911   0.912   0.867   0.963   0.961   0.832   1.017   0.845   0.865   0.752   0.862   0.829   0.733   0.852   0.852   0.972   0.888   0.868   0.992   0.919   0.928   1.015   0.945   0.957   0.974   0.950   0.967   0.885   0.935   0.893   0.864   0.927   0.909   0.939
    91.00    0.996   1.155   1.093   1.079   0.933   1.024   1.115   1.051   0.922   0.902   0.945   0.956   0.958   0.955   0.923   0.912   0.843   0.857   0.837   0.822   0.954   0.828   0.902   0.934   0.835   0.967   0.907   0.918   0.955   1.045   1.052   0.931   0.851   0.911   0.919   0.903   0.840   0.909   0.968   0.952   0.939
    81.00    1.029   1.143   1.131   1.089   1.001   1.019   0.996   1.060   0.935   0.904   1.020   0.939   0.906   0.953   0.854   0.925   0.941   0.878   0.872   0.877   0.868   0.914   0.904   0.997   0.876   0.921   0.846   0.825   0.874   0.993   0.915   0.978   0.877   0.902   0.915   0.863   0.943   0.928   0.922   1.018   0.955
    71.00    1.036   1.151   1.045   1.121   1.081   1.021   0.999   1.031   1.009   0.923   0.985   0.974   0.922   0.892   0.918   0.950   0.813   0.915   0.826   0.906   0.857   0.838   0.854   0.911   0.976   0.862   0.899   0.889   1.017   1.025   0.975   1.007   0.941   0.911   0.864   0.931   1.007   1.039   0.952   0.970   0.953
    61.00    0.979   1.079   1.099   1.110   1.029   1.076   1.032   1.059   0.926   0.842   0.881   0.923   0.904   0.858   0.884   0.871   0.912   0.890   0.899   0.902   0.824   0.793   0.900   0.886   0.960   1.020   1.078   1.004   0.994   1.019   0.985   0.896   0.910   0.985   1.025   0.984   0.975   1.016   0.862   0.830   0.898
    51.00    0.997   1.083   1.159   1.103   0.969   0.974   1.043   0.930   0.821   0.861   0.840   0.827   0.856   0.937   0.950   0.948   0.964   0.951   0.857   0.847   0.839   0.861   0.988   0.954   0.970   0.986   0.956   0.955   0.965   0.995   0.928   0.950   1.041   1.075   1.104   0.935   0.910   0.977   1.005   0.819   0.813
    41.00    1.034   0.929   1.063   0.945   0.903   0.927   1.068   0.962   0.785   0.862   0.868   0.948   0.884   0.871   0.991   0.949   0.888   0.966   0.869   0.851   0.817   0.947   0.908   0.994   1.031   0.973   0.906   1.017   1.096   1.051   0.945   0.978   1.028   0.954   1.063   0.929   0.874   1.016   0.935   0.960   0.888
    31.00    0.980   0.967   1.010   0.808   0.881   0.924   0.974   0.921   0.893   0.859   0.870   0.839   0.829   0.964   0.914   0.905   0.884   0.847   0.872   0.859   0.758   0.846   0.885   0.911   1.095   1.065   1.016   1.089   1.084   1.133   0.975   0.854   0.862   0.892   0.987   0.963   0.901   1.023   1.027   0.966   0.933
    21.00    0.906   1.004   0.929   0.844   0.878   0.918   0.895   0.956   0.941   0.891   0.781   0.991   1.072   0.998   0.832   0.851   0.901   0.953   0.898   0.898   0.860   0.949   0.972   0.958   0.993   1.001   0.967   0.912   1.043   1.066   0.920   1.002   0.898   0.930   0.973   0.961   0.827   0.924   0.975   0.951   0.870
    11.00    0.909   0.925   0.943   0.849   0.862   0.831   0.914   0.824   0.865   0.947   0.877   1.014   1.076   1.029   0.959   0.943   0.884   0.856   0.985   0.963   0.864   0.978   0.931   1.012   0.967   0.993   1.065   1.009   1.047   0.999   0.995   0.937   0.918   0.990   1.049   0.921   1.017   0.949   0.945   0.953   1.029
     1.00    0.974   0.884   0.962   0.828   0.881   0.881   0.886   0.920   0.861   0.978   0.909   0.987   1.059   0.983   0.904   0.965   0.972   0.892   0.993   0.979   0.981   0.907   0.941   0.978   0.929   1.057   1.008   1.021   1.084   1.009   1.073   1.110   1.104   1.091   0.926   0.983   1.037   0.955   0.906   0.857   0.969

   Mean standard deviation across all grid points:
      u component:    0.926 m/s
      v component:    0.981 m/s
      w component:    0.946 m/s


U-component (X) statistics from the interpolated hub point:

   Mean =  10.0066 m/s
   TI   =   9.8099 %


Processing complete.  11.125 CPU seconds used.
