
This summary file was generated by TurbSim (from OpenFAST-v3.4.1) on 29-Nov-2024 at 15:47:21.


Runtime Options:

      2047  Random seed #1
         0  Random seed #2
         F  Output binary HH turbulence parameters?
         F  Output formatted turbulence parameters?
         F  Output AeroDyn HH files?
         T  Output AeroDyn FF files?
         F  Output BLADED FF files?
         F  Output tower data?
         F  Output HAWC FF files?
         F  Output formatted FF files?
         T  Output coherent turbulence time step file?
 0 -  NONE  IEC turbulence models scaled to exact specified standard deviation


Turbine/Model Specifications:

        31  Vertical grid-point matrix dimension
        41  Horizontal grid-point matrix dimension
     0.100  Time step [seconds]
   200.000  Analysis time [seconds]
   200.000  Usable output time [seconds]
   151.000  Hub height [m]
   300.000  Grid height [m]
   600.000  Grid width [m]
     0.000  Vertical flow angle [degrees]
     0.000  Horizontal flow angle [degrees]


Meteorological Boundary Conditions:

    IECVKM  IEC von Karman spectral model
         1  IEC standard: IEC 61400-1 Ed. 2: 1999
    10.000  Percent turbulence intensity, IEC 61400-1 Ed. 2: 1999
       NTM  IEC Normal Turbulence Model
       N/A  IEC Extreme Turbulence Model (ETM) "c" parameter [m/s]
       PL   Wind profile type
   150.000  Reference height [m]
    10.000  Reference wind speed [m/s]
       N/A  Jet height [m]
     0.100  Power law exponent
     0.030  Surface roughness length [m]


Non-IEC Meteorological Boundary Conditions:

       N/A  Site latitude [degrees]
       N/A  Gradient Richardson number
       N/A  Friction or shear velocity [m/s]
       N/A  Mixing layer depth [m]
       N/A  Mean hub u'w' Reynolds stress
       N/A  Mean hub u'v' Reynolds stress
       N/A  Mean hub v'w' Reynolds stress


Spatial Coherence Models:

       IEC  u-component coherence model
       IEC  v-component coherence model
       IEC  w-component coherence model
(   12.000, 0.659E-03)  u-component coherence parameters
(   12.000, 0.659E-03)  v-component coherence parameters
(   12.000, 0.659E-03)  w-component coherence parameters
       N/A  Coherence exponent


You have requested that the following file(s) be generated:

   ./TurbulentWind_30WT/FOWTs/Wind\InflowWind_High_WT23.bts (AeroDyn/TurbSim full-field wind file)


Turbulence Simulation Scaling Parameter Summary:

   Turbulence model used                            =  IEC von Karman
   Turbulence characteristic                        =  User-specified
   IEC standard                                     =  IEC 61400-1 Ed. 2: 1999
   Mean wind speed at hub height                    =   10.007 m/s
   Characteristic value of standard deviation       =    1.001 m/s
   Turbulence scale                                 =   21.000 m
   Isotropic integral scale                         =   73.500 m
   Characteristic value of hub turbulence intensity =   10.000%
   Gradient Richardson number                       =    0.000

   Wind profile type                                =  Power law
   Power law exponent                               =    0.100
   Mean shear across rotor disk                     =    0.016 (m/s)/m
   Assumed rotor diameter                           =  300.000 m
   Surface roughness length                         =    0.030 m

   Nyquist frequency of turbulent wind field        =    5.000 Hz

   Number of time steps in the FFT                  =     2600
   Number of time steps output                      =     2600
   Number of points simulated                       =     1271


Mean Flow Angles:

   Vertical   =   0.0 degrees
   Horizontal =   0.0 degrees

Mean Wind Speed Profile:

   Height    Wind Speed   Horizontal Angle  Vertical Angle  U-comp (X)   V-comp (Y)   W-comp (Z)
     (m)        (m/s)         (degrees)       (degrees)       (m/s)        (m/s)        (m/s)   
   ------    ----------   ----------------  --------------  ----------   ----------   ----------
    301.0       10.72            0.00            0.00         10.72         0.00         0.00
    291.0       10.69            0.00            0.00         10.69         0.00         0.00
    281.0       10.65            0.00            0.00         10.65         0.00         0.00
    271.0       10.61            0.00            0.00         10.61         0.00         0.00
    261.0       10.57            0.00            0.00         10.57         0.00         0.00
    251.0       10.53            0.00            0.00         10.53         0.00         0.00
    241.0       10.49            0.00            0.00         10.49         0.00         0.00
    231.0       10.44            0.00            0.00         10.44         0.00         0.00
    221.0       10.40            0.00            0.00         10.40         0.00         0.00
    211.0       10.35            0.00            0.00         10.35         0.00         0.00
    201.0       10.30            0.00            0.00         10.30         0.00         0.00
    191.0       10.24            0.00            0.00         10.24         0.00         0.00
    181.0       10.19            0.00            0.00         10.19         0.00         0.00
    171.0       10.13            0.00            0.00         10.13         0.00         0.00
    161.0       10.07            0.00            0.00         10.07         0.00         0.00
    151.0       10.01            0.00            0.00         10.01         0.00         0.00
    141.0        9.94            0.00            0.00          9.94         0.00         0.00
    131.0        9.87            0.00            0.00          9.87         0.00         0.00
    121.0        9.79            0.00            0.00          9.79         0.00         0.00
    111.0        9.70            0.00            0.00          9.70         0.00         0.00
    101.0        9.61            0.00            0.00          9.61         0.00         0.00
     91.0        9.51            0.00            0.00          9.51         0.00         0.00
     81.0        9.40            0.00            0.00          9.40         0.00         0.00
     71.0        9.28            0.00            0.00          9.28         0.00         0.00
     61.0        9.14            0.00            0.00          9.14         0.00         0.00
     51.0        8.98            0.00            0.00          8.98         0.00         0.00
     41.0        8.78            0.00            0.00          8.78         0.00         0.00
     31.0        8.54            0.00            0.00          8.54         0.00         0.00
     21.0        8.22            0.00            0.00          8.22         0.00         0.00
     11.0        7.70            0.00            0.00          7.70         0.00         0.00
      1.0        6.06            0.00            0.00          6.06         0.00         0.00


Harvested Random Seeds after Generation of the Random Numbers:

    221402010 Harvested seed # 1
   1971657505 Harvested seed # 2


Hub-Height Simulated Turbulence Statistical Summary:

   Type of Wind        Min (m/s)   Mean (m/s)    Max (m/s)  Sigma (m/s)       TI (%)
   ----------------    ---------   ----------    ---------  -----------       ------
   Longitudinal (u)         7.76        10.01        13.15        0.808        8.072
   Lateral (v)             -2.56        -0.00         3.19        0.961        9.605
   Vertical (w)            -3.11         0.00         2.83        0.965        9.647
   U component              7.76        10.01        13.15        0.808        8.072
   V component             -2.56        -0.00         3.19        0.961        9.605
   W component             -3.11         0.00         2.83        0.965        9.647
   Horizontal (U&V)         7.76        10.05        13.18        0.804        7.995
   Total                    7.97        10.10        13.18        0.797        7.889

                       Min Reynolds     Mean Reynolds    Max Reynolds    Correlation
   Product             Stress (m/s)^2   Stress (m/s)^2   Stress (m/s)^2  Coefficient
   ----------------    --------------   --------------   --------------  -----------
   u'w'                     -3.914             0.025             6.179         0.031
   u'v'                     -3.674             0.062             3.981         0.080
   v'w'                     -5.280            -0.195             4.197        -0.210


   Friction Velocity (Ustar)  =      0.157 m/s
   Maximum Instantaneous TKE  =      6.679 (m/s)^2
   Maximum Instantaneous CTKE =      3.670 (m/s)^2


Grid Point Variance Summary:

   Y-coord -300.00 -285.00 -270.00 -255.00 -240.00 -225.00 -210.00 -195.00 -180.00 -165.00 -150.00 -135.00 -120.00 -105.00  -90.00  -75.00  -60.00  -45.00  -30.00  -15.00    0.00   15.00   30.00   45.00   60.00   75.00   90.00  105.00  120.00  135.00  150.00  165.00  180.00  195.00  210.00  225.00  240.00  255.00  270.00  285.00  300.00

   Height   Standard deviation at grid points for the u component:
   301.00    0.989   1.083   1.156   0.995   0.867   0.844   0.947   0.920   0.895   0.953   1.069   1.080   0.818   0.899   0.853   0.897   0.938   1.051   1.084   0.958   0.923   0.816   0.894   0.944   0.925   0.926   0.861   0.800   0.901   0.888   0.852   0.789   0.772   0.769   0.865   0.946   0.948   0.940   1.067   1.102   1.082
   291.00    1.096   1.049   1.136   1.050   0.857   0.872   0.893   0.982   1.015   1.052   1.097   1.074   0.874   0.962   0.850   0.944   0.976   0.942   0.995   0.927   0.833   0.840   0.922   0.898   0.875   0.892   0.814   0.834   0.989   0.877   0.921   0.883   0.855   0.791   0.868   0.959   0.962   0.962   0.943   1.031   1.010
   281.00    1.146   1.165   1.176   0.970   0.967   0.886   0.940   0.955   0.984   1.042   1.077   0.956   0.812   0.967   1.058   0.819   0.899   0.884   0.885   0.884   0.865   0.863   0.877   0.808   0.921   0.872   0.934   1.042   0.999   1.038   0.820   0.857   0.843   0.937   0.950   0.949   0.956   0.883   0.939   0.989   1.120
   271.00    1.106   1.171   1.083   0.936   0.837   0.752   0.968   0.902   0.897   1.019   1.048   1.016   1.075   0.999   1.049   0.886   0.822   0.900   0.946   0.910   0.853   0.822   0.862   0.840   0.862   0.999   1.004   1.036   1.105   1.047   0.889   0.835   0.872   1.047   0.995   0.996   0.857   0.942   0.928   1.112   1.099
   261.00    1.168   1.107   0.956   0.888   1.015   0.965   1.014   0.890   0.898   0.989   1.025   0.979   1.035   1.041   0.971   0.992   0.838   0.836   0.888   0.949   0.935   0.862   0.815   0.824   0.718   0.943   1.010   1.067   0.986   0.933   0.823   0.860   0.967   1.035   0.990   0.952   0.905   0.965   1.004   1.073   1.158
   251.00    1.164   1.033   0.832   0.988   0.995   1.008   0.912   1.016   1.058   0.966   1.033   1.050   1.075   0.989   1.078   0.974   0.941   0.831   0.851   0.912   0.920   0.835   0.763   0.798   0.854   0.997   1.037   0.925   0.975   0.786   0.779   0.787   0.861   0.945   0.999   0.928   0.860   1.020   1.064   1.043   1.088
   241.00    1.152   0.983   1.003   1.049   0.986   1.017   1.041   1.221   1.102   1.095   1.064   1.001   1.021   1.034   1.039   0.905   0.985   0.878   0.885   0.927   0.919   0.844   0.752   0.866   0.782   0.896   0.925   0.868   0.942   0.771   0.846   0.903   0.925   0.817   0.890   0.912   0.980   1.032   0.966   0.975   1.038
   231.00    1.114   1.201   1.108   1.152   1.066   1.098   1.111   1.175   1.088   1.098   1.076   1.044   1.158   1.165   1.169   0.977   1.012   0.909   0.901   0.870   0.898   0.879   0.822   0.890   0.887   0.849   0.799   0.825   0.886   0.845   0.943   1.003   0.931   0.872   0.874   1.017   1.009   1.083   0.930   0.941   1.066
   221.00    1.141   1.071   1.114   1.011   1.043   1.142   1.101   1.075   1.042   1.021   1.120   1.098   1.267   1.142   1.093   0.994   1.036   1.008   0.905   0.780   0.860   0.839   0.951   0.877   0.862   0.935   0.941   0.997   0.995   0.992   1.009   1.072   1.016   0.877   0.905   0.952   1.071   1.088   0.948   1.048   0.979
   211.00    1.166   1.077   1.122   1.037   1.059   1.019   1.057   1.090   0.997   1.067   1.071   1.148   1.056   1.149   1.107   1.033   0.967   0.920   0.951   0.826   0.848   0.821   0.814   0.826   0.950   0.887   0.973   0.979   0.969   1.018   1.097   1.007   0.908   0.906   0.921   0.947   1.100   0.972   1.018   1.144   1.078
   201.00    1.192   1.126   1.135   1.114   1.057   0.907   0.927   1.030   1.016   0.990   1.061   0.975   0.998   1.165   1.135   0.951   0.861   0.968   0.992   0.838   0.841   0.771   0.730   0.837   0.873   0.936   0.929   0.900   0.855   0.934   1.041   0.964   0.954   0.983   1.055   1.055   1.134   1.148   1.014   1.091   1.163
   191.00    1.061   1.015   1.117   1.073   1.054   0.925   0.945   0.977   0.858   1.016   1.002   0.971   1.008   1.166   1.164   1.008   0.976   0.948   0.882   0.938   0.910   0.786   0.832   0.958   0.849   0.988   0.965   0.957   0.991   0.955   1.038   0.915   1.015   0.991   1.122   1.028   1.028   1.169   1.221   1.141   1.214
   181.00    1.077   0.990   1.049   0.984   1.143   0.945   0.942   0.905   0.962   1.017   0.978   0.976   1.099   1.074   1.156   1.064   0.985   0.938   0.911   0.868   0.852   0.816   0.800   0.912   0.946   0.970   1.124   1.063   1.085   1.060   1.054   0.988   0.914   0.993   1.009   0.959   0.995   1.225   1.293   1.272   1.299
   171.00    0.985   0.987   0.982   1.111   1.092   1.127   1.123   1.078   1.100   1.003   0.987   0.906   1.038   1.042   1.077   1.035   0.905   0.831   0.910   0.828   0.874   0.790   0.775   0.798   0.774   1.020   1.050   1.078   0.990   0.932   1.008   0.950   0.774   0.843   0.954   0.959   0.843   0.993   1.200   1.207   1.223
   161.00    1.055   1.013   0.997   1.073   1.097   1.112   1.095   1.114   1.140   1.081   1.019   0.938   0.955   1.082   1.073   0.917   0.836   0.831   0.916   0.877   0.839   0.875   0.821   0.868   0.921   1.005   1.081   1.038   0.986   0.959   0.908   0.791   0.824   0.836   0.882   1.033   0.929   0.907   1.136   0.963   1.197
   151.00    1.035   1.026   0.996   1.089   1.069   1.137   1.045   1.134   1.219   1.085   1.089   0.961   1.149   1.001   1.038   0.932   0.978   0.935   0.925   0.965   0.808   0.852   0.869   0.822   0.847   0.964   1.031   0.909   1.039   0.874   0.960   0.816   0.916   0.890   1.034   1.046   0.956   0.952   1.099   1.187   1.081
   141.00    1.051   1.137   0.962   1.019   1.077   1.078   1.058   1.105   1.175   1.119   1.119   1.058   1.055   1.037   0.933   0.776   0.941   0.871   0.824   0.834   0.882   0.750   0.762   0.783   0.855   0.982   0.909   0.958   0.923   0.951   0.866   0.903   0.923   0.982   0.927   1.095   1.094   0.994   1.019   1.011   0.984
   131.00    1.000   1.061   1.043   0.927   1.039   1.058   1.041   1.163   1.141   1.096   1.073   0.966   1.013   0.875   0.948   0.897   0.900   0.858   0.876   0.822   0.790   0.828   0.811   0.843   0.851   0.979   0.928   0.950   0.925   1.030   0.908   0.933   0.920   1.075   0.998   1.043   1.107   0.881   0.906   0.984   0.897
   121.00    1.001   0.975   1.029   0.946   0.947   1.078   1.023   1.049   1.083   1.002   1.100   1.112   0.936   0.952   0.931   0.929   1.056   1.014   0.911   0.820   0.822   0.872   0.871   0.757   0.896   0.920   0.824   0.893   1.035   1.092   0.932   0.887   0.986   1.152   1.055   1.046   1.101   1.050   0.958   0.826   0.898
   111.00    1.027   1.000   0.947   0.957   0.943   1.086   1.028   0.975   1.028   1.015   1.134   0.991   0.951   0.938   0.892   0.867   0.926   0.988   1.020   0.804   0.821   0.971   0.901   0.890   0.821   0.843   0.927   0.867   1.000   0.995   0.995   0.977   1.120   1.128   1.143   1.077   1.144   1.066   0.971   0.840   0.952
   101.00    0.985   0.896   0.893   0.904   0.832   0.997   1.007   1.007   0.969   1.039   1.124   1.050   0.980   1.001   0.810   0.949   0.937   0.962   0.980   0.819   0.796   0.912   0.830   0.872   0.727   0.852   0.915   0.861   0.996   1.085   1.089   1.056   1.049   1.117   1.113   1.069   1.110   1.054   0.907   0.939   1.037
    91.00    0.931   0.887   0.873   0.914   0.863   0.861   1.021   1.063   1.020   1.051   1.055   0.971   0.972   0.965   0.957   0.956   0.838   0.973   0.983   0.851   0.796   0.865   0.785   0.748   0.748   0.832   0.952   0.887   1.010   1.026   1.154   0.994   1.038   1.093   0.971   0.923   0.964   1.053   1.072   0.987   1.019
    81.00    0.891   0.818   0.758   0.818   0.773   0.992   1.031   1.001   0.978   0.992   0.967   0.931   0.872   0.928   0.851   0.890   0.857   0.906   0.869   0.832   0.817   0.995   0.789   0.856   0.808   0.894   0.948   0.943   0.963   1.018   1.013   1.106   1.046   1.049   1.091   0.966   0.933   1.053   0.969   0.914   1.009
    71.00    0.861   0.926   0.899   0.862   0.793   0.933   1.104   0.993   0.976   1.020   0.895   0.809   0.854   0.874   0.881   0.900   0.875   0.844   0.836   0.850   0.776   0.950   0.910   0.890   0.846   1.093   1.093   1.063   0.964   0.918   0.945   0.994   1.043   1.003   1.084   1.041   1.038   1.096   0.930   0.911   0.929
    61.00    0.924   0.927   0.889   0.866   0.797   0.919   1.042   0.981   0.982   1.027   0.742   0.786   0.830   0.836   0.724   0.887   0.879   0.965   0.781   0.728   0.771   0.958   0.922   0.855   0.930   1.078   1.180   1.115   0.958   0.951   1.029   1.011   1.095   1.053   1.091   0.984   0.981   1.106   0.936   0.962   0.915
    51.00    0.852   0.888   0.832   0.847   0.828   0.841   0.935   0.873   0.982   0.950   0.845   0.861   0.866   0.916   0.796   0.828   0.931   0.970   0.849   0.739   0.848   0.869   0.958   1.009   0.992   1.032   1.106   1.091   0.913   0.953   0.934   0.967   0.922   0.916   1.012   0.836   0.944   1.048   1.058   0.971   0.940
    41.00    0.822   0.819   0.899   0.778   0.841   0.883   0.935   0.819   0.827   0.889   0.930   0.882   0.869   0.862   0.812   0.886   0.817   0.854   0.895   0.885   1.016   1.061   0.945   0.913   0.916   0.989   1.033   1.057   1.034   1.076   1.003   1.050   1.010   0.889   1.002   0.916   0.813   1.006   0.903   0.885   0.872
    31.00    0.885   0.861   0.799   0.840   0.891   0.958   0.869   0.865   0.931   0.898   0.902   0.919   0.884   0.861   0.820   0.854   0.891   0.843   0.814   0.994   1.043   0.964   0.956   0.893   0.897   0.930   0.942   0.978   1.073   1.040   1.065   1.049   0.952   0.907   0.936   0.993   0.895   1.023   1.018   0.936   0.881
    21.00    0.904   0.828   0.866   0.778   0.867   0.925   0.921   0.970   0.906   0.970   0.820   0.851   0.856   1.020   0.943   0.935   0.873   0.855   0.891   0.992   1.038   0.962   0.959   0.918   0.869   0.840   0.845   1.019   1.014   1.044   1.049   1.075   0.938   0.832   0.882   0.902   0.877   0.895   0.929   1.038   0.916
    11.00    1.031   0.848   0.883   0.933   0.898   0.930   0.968   1.031   0.870   1.053   0.951   0.928   0.922   0.941   0.948   0.954   0.931   0.860   0.954   0.894   1.029   0.961   0.903   0.841   0.832   0.824   0.810   0.994   1.040   1.046   1.147   0.915   0.820   0.972   0.927   0.981   0.964   0.904   1.015   0.931   0.911
     1.00    0.963   0.841   0.920   0.988   1.023   0.868   0.926   0.942   0.948   1.021   0.981   0.997   0.882   0.835   0.885   1.010   0.892   0.865   0.902   0.985   0.968   0.887   0.898   0.882   0.781   0.826   0.864   0.970   1.048   0.896   1.019   0.924   0.954   0.987   1.106   0.995   0.982   1.017   1.013   1.036   0.967

   Height   Standard deviation at grid points for the v component:
   301.00    0.944   0.890   0.908   0.845   0.968   1.108   0.986   0.949   0.977   0.992   1.020   1.000   0.965   0.999   0.966   1.022   0.967   1.046   1.091   1.097   1.005   1.107   1.027   0.949   1.030   1.012   1.118   1.028   1.091   1.061   0.981   1.055   0.969   0.844   1.012   1.016   0.994   1.073   1.052   0.867   0.929
   291.00    0.918   0.892   0.985   0.874   1.003   0.991   1.021   0.978   1.009   0.942   1.048   0.910   0.896   0.976   0.936   1.019   0.900   1.041   1.131   1.166   1.014   1.144   0.988   0.996   1.004   1.089   1.085   1.085   1.090   1.024   0.995   0.984   0.876   0.906   0.900   1.018   0.950   0.989   0.945   1.051   1.014
   281.00    0.938   0.882   0.965   0.953   1.047   1.048   0.985   0.910   0.895   1.012   0.935   0.919   0.882   0.926   0.951   1.001   1.107   1.118   1.061   1.092   1.021   1.157   1.057   0.885   1.018   1.021   1.078   1.039   1.096   1.010   1.011   0.865   0.934   0.885   0.874   0.993   0.864   0.995   0.952   1.058   1.117
   271.00    0.882   1.009   0.925   0.922   1.005   0.987   1.033   0.991   1.012   1.008   0.883   0.867   0.910   0.906   0.922   0.915   1.112   1.158   1.061   0.991   0.953   1.153   0.980   0.926   1.040   1.059   1.020   1.099   1.147   1.027   0.994   0.862   0.886   0.890   0.932   0.959   0.963   0.920   0.943   1.123   1.247
   261.00    0.932   0.972   0.929   0.895   0.873   0.965   1.056   0.939   1.063   0.973   0.925   0.851   0.865   0.896   1.024   0.971   1.060   1.156   1.125   1.053   0.984   1.106   0.979   1.104   1.001   1.064   1.019   1.019   1.120   1.051   0.967   0.895   0.871   0.893   0.942   0.951   0.928   0.866   0.925   1.023   1.240
   251.00    0.893   1.005   0.964   0.893   0.849   0.933   1.026   0.954   1.109   0.928   0.933   0.924   0.931   1.069   1.070   0.992   1.037   1.102   1.022   0.992   1.017   0.956   1.041   0.973   1.079   1.058   1.019   1.166   0.989   0.937   0.924   0.889   0.823   0.959   0.853   0.929   0.896   0.940   0.919   1.019   1.163
   241.00    0.923   0.942   0.882   0.911   0.831   0.954   0.902   0.875   1.055   1.033   1.004   0.966   0.949   1.012   1.097   1.105   1.206   1.156   1.083   1.025   0.975   0.997   0.985   1.061   1.011   0.989   1.156   1.134   1.055   0.967   0.972   0.891   0.877   0.892   0.943   0.912   0.927   0.903   0.980   0.981   1.137
   231.00    0.939   0.869   0.943   0.800   0.913   1.040   0.939   0.970   0.947   0.981   0.946   0.972   0.963   1.032   1.125   1.086   1.128   1.028   1.037   0.959   0.949   0.958   1.018   1.041   0.981   1.034   1.096   1.024   0.994   1.037   0.941   0.862   0.915   0.908   1.019   0.931   0.904   0.860   0.987   1.118   1.138
   221.00    0.919   0.784   0.833   0.875   0.835   0.910   0.975   0.955   0.979   0.923   0.931   1.014   1.049   1.094   1.062   1.011   1.119   1.083   0.955   0.929   0.899   0.917   0.889   1.037   0.974   1.001   1.114   1.039   0.954   0.907   0.918   0.863   0.874   0.957   0.920   0.949   0.907   0.854   1.018   1.120   1.129
   211.00    0.975   0.885   0.892   0.910   0.914   0.884   1.036   0.996   0.975   0.890   0.918   0.971   1.023   1.073   1.012   0.952   0.952   0.996   1.014   0.880   0.882   0.823   0.882   0.919   0.844   0.937   0.959   1.001   0.995   0.933   0.880   0.956   1.011   1.011   1.070   0.932   0.837   0.899   0.973   1.092   1.088
   201.00    0.879   0.884   0.941   0.881   0.996   0.979   1.054   1.036   0.887   0.849   0.983   0.950   0.957   0.974   1.072   0.975   0.939   0.994   0.949   1.042   0.857   0.833   0.890   0.908   0.916   0.959   0.941   0.979   0.916   0.956   0.961   1.048   1.117   1.137   1.064   0.990   0.897   1.013   1.043   0.968   1.058
   191.00    0.846   0.897   0.909   0.904   0.984   1.004   0.985   1.028   0.896   0.952   0.894   0.917   0.942   0.986   0.925   1.009   0.985   0.875   1.011   0.999   0.796   0.804   0.875   0.976   1.053   0.966   0.967   1.006   0.929   0.963   0.983   1.081   1.141   1.215   1.075   0.903   1.031   0.979   1.043   0.997   0.999
   181.00    0.887   0.902   0.940   0.782   0.906   1.017   1.070   0.925   1.048   0.997   0.906   0.892   0.937   1.100   0.895   0.937   0.954   0.974   0.901   1.003   0.925   0.911   0.831   0.911   0.987   0.964   0.975   1.120   0.988   0.965   0.937   0.996   0.994   1.106   0.977   0.933   0.954   0.981   0.965   0.985   0.998
   171.00    0.835   0.817   0.852   0.852   0.851   0.975   0.970   0.900   1.041   0.965   0.869   0.876   1.057   1.087   0.932   0.927   0.816   0.869   0.933   0.929   0.977   0.994   0.937   0.969   1.025   0.913   0.909   1.070   1.002   0.962   0.957   0.934   0.904   1.012   0.966   0.986   0.853   0.938   1.085   1.026   1.037
   161.00    0.933   0.843   0.894   0.882   0.802   0.944   0.953   0.903   0.960   0.883   0.902   0.978   1.008   1.139   0.936   0.986   0.827   0.876   0.946   0.986   1.062   1.043   1.060   0.915   0.912   0.938   0.926   1.044   0.957   0.931   0.952   0.897   0.937   1.014   0.922   0.886   0.910   0.939   1.019   1.058   1.046
   151.00    0.891   0.874   0.901   0.872   0.795   0.904   0.930   0.873   0.942   0.983   0.861   0.996   0.986   1.035   0.946   0.899   0.831   0.897   0.996   1.083   0.961   0.994   1.034   1.014   0.917   0.886   0.928   0.951   0.884   0.907   0.970   0.913   0.896   0.923   0.942   0.845   0.866   0.880   0.936   1.120   1.147
   141.00    0.885   0.965   0.952   0.912   0.943   1.016   0.898   0.931   1.000   0.930   0.902   1.032   1.048   1.031   0.929   0.969   0.806   0.832   0.976   0.999   1.020   0.976   0.965   0.920   0.816   0.910   0.877   0.965   0.930   0.942   0.908   0.833   0.958   0.943   0.969   0.954   0.865   0.904   0.808   1.070   1.178
   131.00    0.879   0.975   0.990   0.826   0.977   0.920   0.945   0.998   0.922   0.960   0.995   1.022   0.971   0.965   0.996   0.928   0.890   0.915   0.972   0.975   0.968   0.893   0.953   0.944   0.848   0.895   0.864   0.974   0.846   0.851   0.892   0.899   0.944   0.978   0.929   0.991   0.851   0.974   0.958   1.133   1.142
   121.00    0.940   0.905   0.875   0.857   0.920   1.024   0.948   0.893   0.947   0.926   1.113   1.072   1.099   1.020   0.980   0.858   0.939   0.967   0.973   0.981   0.992   0.895   0.952   0.858   0.881   0.959   0.908   0.930   0.859   0.861   0.913   0.913   0.915   1.080   0.982   0.902   0.937   0.948   0.948   1.064   1.029
   111.00    0.906   0.975   0.853   0.829   0.894   1.026   1.008   0.991   0.985   1.008   1.000   1.134   1.110   1.080   0.892   0.963   0.885   0.998   1.011   1.006   0.899   0.977   1.015   0.792   0.885   0.943   0.976   0.919   1.028   0.944   0.908   0.909   0.952   0.964   0.916   0.912   0.955   1.030   0.944   0.942   0.931
   101.00    0.960   0.959   1.053   0.862   0.835   0.960   1.013   1.061   1.048   1.006   1.059   1.101   0.990   1.080   1.030   0.948   0.885   0.929   0.993   0.962   0.969   1.056   1.060   0.910   0.816   0.916   0.979   1.003   0.939   0.926   0.916   0.903   0.928   0.920   0.853   0.944   0.924   0.927   0.818   0.981   1.040
    91.00    0.957   0.961   1.018   0.959   0.961   0.875   0.954   0.990   1.054   0.992   0.989   1.020   1.100   1.112   1.073   0.968   0.934   0.951   0.917   0.897   0.947   1.020   1.006   0.919   0.838   0.869   0.953   0.984   0.918   1.010   0.993   0.975   0.944   0.861   0.896   0.922   0.869   0.916   0.847   1.060   1.084
    81.00    0.981   0.950   0.958   0.927   0.941   0.957   0.920   0.986   0.937   1.021   0.892   1.024   1.070   1.123   1.164   0.935   0.859   0.955   0.955   0.911   1.005   0.989   1.052   0.880   0.820   0.828   0.897   0.966   0.975   0.986   1.076   1.007   0.995   0.843   0.862   0.890   0.835   0.872   0.922   0.980   1.013
    71.00    0.959   0.967   0.915   0.871   0.955   1.011   0.924   0.981   1.040   1.035   0.952   0.954   1.124   1.257   1.161   1.039   0.895   0.830   0.914   1.029   1.014   0.931   0.919   0.917   0.889   0.850   0.866   1.022   1.055   0.987   0.954   0.919   0.920   0.881   0.921   1.005   0.893   0.988   1.018   1.025   0.948
    61.00    1.011   0.991   1.091   0.892   0.953   0.917   0.913   1.015   0.985   1.021   0.921   0.997   1.078   1.238   1.165   0.992   0.888   0.834   0.997   0.975   0.948   0.949   0.930   0.865   0.918   0.866   0.977   0.971   1.024   0.955   0.919   0.894   0.941   0.985   0.958   0.983   0.993   0.929   0.999   1.003   1.120
    51.00    0.935   0.955   1.058   0.970   0.861   0.911   0.986   0.956   0.965   1.013   1.012   1.058   0.988   1.122   1.140   1.144   0.999   0.940   0.952   0.870   0.933   0.978   1.036   0.977   0.868   0.926   0.922   0.956   1.002   0.861   0.880   0.932   0.900   1.017   1.040   1.075   1.017   1.010   0.913   1.036   1.049
    41.00    0.999   1.088   1.174   1.102   1.012   1.072   1.093   1.116   1.017   0.974   0.935   0.993   0.984   1.033   1.068   1.045   1.022   0.931   1.060   0.964   0.968   1.062   0.987   0.947   0.825   0.900   1.008   0.913   0.893   0.959   0.916   1.006   0.975   0.967   1.002   0.973   1.004   0.986   0.962   0.970   1.042
    31.00    0.930   1.063   1.071   1.003   1.016   1.149   1.033   1.172   1.044   0.990   0.973   1.005   0.958   1.043   1.048   0.955   1.130   1.006   1.004   0.921   0.978   1.064   0.984   0.954   0.860   0.874   0.880   0.833   0.871   0.898   1.034   1.021   0.980   0.933   0.957   0.910   0.947   0.931   0.989   0.950   0.953
    21.00    0.974   1.012   1.003   0.978   1.073   1.102   1.000   1.131   1.181   1.033   1.017   0.901   0.937   0.992   1.029   1.013   0.992   0.967   0.935   0.948   0.847   0.914   0.869   0.833   0.881   0.863   0.924   0.919   0.938   0.914   0.908   1.001   0.988   1.032   0.889   0.903   0.930   0.920   0.922   1.015   1.081
    11.00    0.993   0.992   1.148   1.017   0.975   0.968   0.982   1.044   1.176   1.026   0.989   0.916   0.919   0.929   1.009   0.918   0.936   0.890   0.973   0.972   0.800   0.972   0.876   0.852   0.902   0.895   0.962   1.029   1.017   0.942   0.897   0.846   0.973   0.923   0.928   0.849   0.916   0.939   0.900   1.017   1.049
     1.00    0.974   1.013   1.108   0.941   0.998   0.990   0.946   1.060   1.106   1.115   0.929   0.927   0.936   0.974   0.979   0.948   0.973   0.831   0.886   0.917   0.925   0.964   0.928   0.936   0.890   0.835   0.888   0.999   1.083   0.973   0.991   0.875   0.993   1.003   0.850   0.913   0.976   1.004   0.919   0.935   1.014

   Height   Standard deviation at grid points for the w component:
   301.00    0.925   1.034   1.030   0.989   0.861   0.839   0.952   1.036   0.866   0.988   1.015   1.014   1.016   0.950   0.971   0.914   0.951   0.901   0.797   0.898   0.972   1.080   1.101   1.023   0.918   0.944   0.984   0.942   0.899   0.897   0.890   0.947   1.039   1.102   0.946   1.028   1.010   1.044   0.980   0.841   0.866
   291.00    0.976   1.041   0.999   0.969   0.938   0.891   0.955   1.038   0.867   0.891   0.964   0.949   1.014   0.944   0.980   0.869   0.906   0.893   0.875   0.898   0.938   1.064   1.033   0.997   0.960   1.031   0.823   0.875   0.833   0.940   0.963   0.944   0.938   1.031   1.062   0.973   1.017   0.987   0.921   0.819   0.898
   281.00    0.997   1.033   0.991   0.941   1.050   0.842   0.952   1.043   0.823   0.985   1.003   0.999   0.959   0.964   1.012   0.938   0.928   0.858   0.799   0.918   0.977   0.952   0.996   0.965   0.956   0.911   0.892   0.902   1.056   0.963   0.932   0.977   0.935   0.993   1.002   0.954   0.963   0.911   0.924   0.939   0.888
   271.00    0.969   0.930   0.891   0.969   1.013   0.969   0.933   0.955   0.897   0.979   0.916   0.965   0.921   0.936   0.973   0.981   0.932   0.855   0.798   0.914   1.016   1.006   1.011   1.062   0.935   0.929   0.952   0.915   1.056   0.985   0.961   0.995   0.987   0.915   0.954   1.010   0.933   0.855   0.919   0.982   0.964
   261.00    0.955   0.903   0.905   1.090   1.002   0.993   0.966   0.976   0.991   0.983   0.904   1.012   1.026   1.004   1.060   0.895   0.946   0.850   0.856   0.882   0.943   1.026   1.059   0.903   0.993   0.902   0.915   1.056   1.061   0.962   0.993   1.096   1.039   0.968   1.005   0.944   0.964   0.903   0.991   0.978   0.932
   251.00    0.955   0.970   1.092   1.012   1.066   0.970   1.007   0.979   1.096   0.973   0.940   0.876   0.965   1.057   1.049   0.916   0.822   0.876   0.917   0.916   0.913   0.995   0.966   0.924   0.924   0.994   0.985   0.976   1.007   1.024   0.950   1.045   1.050   1.005   1.006   0.953   1.068   0.956   0.991   1.013   1.011
   241.00    0.999   0.991   0.996   1.011   1.003   0.961   0.982   1.030   1.016   1.016   0.858   0.985   0.853   0.933   0.969   0.948   0.807   0.922   0.935   0.981   0.816   0.907   0.898   0.909   0.934   0.932   0.897   1.018   0.982   0.966   0.989   0.934   0.922   0.978   1.042   0.893   0.892   0.994   1.025   1.024   1.059
   231.00    0.940   0.923   1.086   1.063   1.147   0.992   0.929   1.001   1.016   0.974   0.968   0.916   0.894   0.883   0.974   0.861   0.892   0.899   0.895   0.963   0.927   0.858   0.867   0.844   0.994   0.929   0.999   1.116   1.064   1.075   1.008   0.808   0.956   0.986   0.976   1.074   0.866   0.939   0.980   0.990   0.951
   221.00    0.927   0.981   1.006   1.023   1.020   0.973   0.916   1.013   1.010   0.914   0.860   0.986   0.968   0.835   0.876   0.813   0.932   0.919   0.796   0.892   0.895   0.871   0.870   0.938   0.997   0.961   0.951   0.997   1.067   1.157   1.059   0.868   0.952   0.951   1.007   1.038   0.880   0.979   1.056   1.062   0.992
   211.00    1.000   0.951   0.943   1.006   0.997   0.859   0.829   0.953   0.986   0.896   0.878   0.939   0.967   0.864   0.804   0.808   0.878   0.942   0.882   0.906   0.840   0.872   0.847   0.878   0.982   0.950   0.951   1.035   1.138   1.139   1.043   1.025   0.918   0.928   1.075   1.020   1.001   0.973   0.963   1.054   1.030
   201.00    0.974   0.882   0.954   1.021   1.015   0.924   0.790   0.884   0.927   0.890   0.836   1.009   1.051   0.918   0.874   0.924   1.065   0.928   0.927   0.945   0.892   0.923   0.908   0.955   1.002   1.046   0.971   1.113   1.142   1.129   1.010   0.925   0.887   0.923   1.008   1.023   1.047   0.951   0.948   1.022   1.089
   191.00    0.941   0.913   0.967   1.020   0.926   0.847   0.779   0.864   0.899   0.802   0.906   0.913   0.983   0.958   0.816   0.919   1.007   0.909   0.986   0.937   0.966   0.978   0.873   0.988   0.945   0.982   1.001   1.063   1.168   1.100   1.044   0.902   0.859   0.955   1.054   1.184   1.046   0.953   0.995   1.041   1.064
   181.00    0.913   0.903   0.987   0.975   0.925   0.880   0.878   0.872   0.953   0.892   0.904   0.917   0.909   0.919   0.969   0.978   0.989   0.992   0.988   0.984   1.072   1.092   0.971   0.944   0.957   0.969   0.945   1.000   1.029   1.125   1.059   0.970   0.927   1.005   1.033   1.074   1.140   1.222   1.030   1.048   0.963
   171.00    0.929   0.973   1.123   0.927   0.979   0.864   0.892   0.859   0.831   0.812   0.927   0.849   0.907   0.847   0.872   0.890   0.934   0.978   1.042   1.010   1.104   1.118   0.971   0.946   0.970   0.943   0.952   0.953   0.997   1.071   1.023   1.025   0.998   1.003   0.966   1.006   0.973   1.139   1.043   0.905   0.951
   161.00    1.007   1.106   1.085   0.940   0.926   0.917   0.904   0.861   0.842   0.866   0.932   0.860   0.964   0.816   0.821   0.881   0.969   0.995   0.971   1.086   1.017   1.093   1.025   1.043   1.022   0.986   1.021   0.920   1.026   1.027   1.085   1.047   1.001   0.968   0.980   0.970   1.052   1.106   0.902   0.913   1.026
   151.00    0.940   1.035   1.006   0.966   0.894   0.876   0.881   0.897   0.942   0.915   0.985   0.971   1.032   0.911   0.971   0.877   0.874   0.907   0.950   0.981   0.965   0.947   1.037   1.006   0.928   1.082   1.066   1.107   1.030   1.000   1.137   1.072   0.969   0.857   0.927   1.030   0.991   1.030   1.027   0.942   0.934
   141.00    0.994   1.092   0.979   1.005   0.895   0.887   0.860   0.909   0.925   1.007   1.072   1.044   1.073   1.052   0.950   0.939   0.851   0.852   0.918   0.954   0.943   0.918   1.015   0.969   1.003   1.014   1.029   1.160   1.050   0.951   1.102   1.033   0.939   0.903   0.926   0.962   1.011   0.920   0.925   1.047   1.005
   131.00    0.907   1.025   0.920   0.968   0.873   0.894   0.920   0.981   1.017   0.946   0.985   0.945   0.951   1.027   0.997   0.977   0.821   0.791   0.866   0.931   0.929   1.045   0.944   0.939   0.944   0.981   1.043   1.094   1.089   1.045   0.954   1.000   0.915   0.910   0.894   0.882   0.959   0.970   0.985   0.991   1.011
   121.00    0.960   0.933   0.870   0.856   0.904   0.921   0.878   1.031   1.008   0.968   0.998   1.062   1.018   1.065   1.008   0.989   0.885   0.822   0.857   0.890   0.962   1.006   1.010   0.997   0.934   0.978   1.077   1.202   1.070   1.065   0.913   1.022   0.944   1.035   0.921   1.109   0.971   1.036   0.971   1.024   1.045
   111.00    0.967   0.875   0.871   0.815   0.868   0.838   0.918   0.953   1.010   1.005   0.970   0.985   1.082   1.077   1.043   0.970   0.960   0.937   0.803   0.842   0.896   0.937   1.004   0.888   0.898   0.969   1.013   1.072   1.010   1.082   1.112   1.053   1.037   1.150   1.113   1.155   1.173   1.053   0.967   1.114   1.114
   101.00    0.879   0.855   0.850   0.916   0.843   0.873   0.831   0.915   0.933   1.027   0.942   0.894   0.949   1.152   1.029   0.912   0.942   0.958   0.769   0.788   0.843   0.839   0.917   1.019   1.039   0.976   0.959   0.988   0.880   1.031   1.024   1.006   1.090   1.152   1.117   1.092   1.062   1.061   1.052   1.094   1.061
    91.00    0.839   0.855   0.883   0.890   0.895   0.871   0.862   0.863   0.949   0.980   0.883   0.864   0.977   0.994   1.010   0.962   0.899   0.915   0.847   0.839   0.852   0.817   0.938   1.000   0.931   0.877   0.897   0.945   0.992   1.041   1.050   1.134   1.111   1.115   1.024   1.049   1.023   0.934   1.055   1.059   0.988
    81.00    0.900   0.878   0.842   0.880   0.836   1.000   0.848   0.846   0.855   0.951   0.935   0.934   0.958   0.976   0.990   0.970   0.948   0.875   0.982   0.819   0.919   0.916   0.932   0.954   0.902   0.928   0.864   0.837   0.960   1.014   1.021   1.124   1.085   1.091   0.998   1.024   1.057   0.974   1.008   1.004   1.011
    71.00    0.902   0.975   1.010   0.926   0.941   0.856   0.964   0.855   0.959   0.877   0.966   0.940   0.991   0.902   0.966   0.958   0.933   0.930   1.017   0.971   1.054   0.959   0.919   0.927   0.905   0.917   0.844   0.858   0.891   1.047   1.025   1.068   0.991   0.954   0.932   1.115   1.066   0.938   0.939   0.972   1.003
    61.00    0.991   0.986   0.898   0.865   0.890   0.910   0.943   0.907   0.966   0.978   0.938   0.985   1.036   0.865   0.955   0.940   0.834   0.926   0.962   1.050   1.022   1.131   1.015   0.947   0.973   0.935   0.793   0.863   0.959   0.975   1.040   1.078   0.904   0.941   0.839   1.080   1.195   0.943   0.946   0.900   0.991
    51.00    0.950   0.957   0.871   0.875   0.890   0.976   0.984   0.937   0.897   0.896   0.942   0.950   0.992   0.895   0.933   0.864   0.870   0.932   0.975   1.049   1.023   1.082   0.983   0.952   1.018   0.857   0.847   0.845   0.962   0.914   0.906   0.874   0.956   0.947   0.915   0.976   1.095   0.965   0.914   0.917   0.948
    41.00    1.009   0.928   0.960   0.866   0.848   0.938   0.980   1.039   0.892   0.967   0.910   0.929   0.982   1.003   0.859   0.894   0.997   0.918   0.898   0.851   0.913   1.007   1.007   0.939   0.955   0.960   0.868   0.857   0.893   0.923   0.859   0.940   0.973   0.971   0.869   0.954   1.016   0.886   0.881   0.909   1.025
    31.00    1.020   1.004   0.895   0.815   0.848   0.885   0.903   0.933   0.909   0.905   0.912   0.915   0.948   1.058   1.033   0.968   1.008   0.883   0.917   0.899   0.881   1.019   0.972   0.933   0.895   0.894   1.002   0.920   0.972   0.897   0.918   0.940   0.930   0.978   0.839   0.873   1.007   0.874   0.874   0.834   1.003
    21.00    1.025   0.960   0.858   0.861   0.835   0.851   0.936   0.904   0.942   0.897   0.905   0.999   0.964   0.972   1.030   0.996   0.946   0.951   0.919   0.986   0.940   0.961   0.898   0.925   0.990   0.829   0.993   1.005   1.016   0.994   0.923   1.034   1.048   0.973   1.021   1.021   1.009   0.904   0.938   0.854   0.971
    11.00    1.011   0.911   0.937   0.920   0.922   0.927   1.037   1.061   0.912   0.898   0.887   0.974   0.879   0.930   1.049   0.926   0.952   0.957   0.991   0.973   0.899   0.929   0.850   0.891   0.928   0.891   0.847   0.948   1.047   1.078   1.028   1.024   1.034   1.018   1.131   1.083   1.028   1.102   1.037   1.038   0.993
     1.00    0.974   0.981   0.991   0.970   0.982   0.934   0.973   1.060   0.894   0.857   0.869   0.935   0.983   0.940   0.977   0.968   0.958   0.995   1.028   0.955   0.944   0.977   0.888   0.918   0.950   0.870   0.905   0.877   1.011   1.022   1.064   0.986   1.034   1.001   1.085   1.096   1.145   1.118   1.079   0.947   0.974

   Mean standard deviation across all grid points:
      u component:    0.961 m/s
      v component:    0.969 m/s
      w component:    0.961 m/s


U-component (X) statistics from the interpolated hub point:

   Mean =  10.0066 m/s
   TI   =   8.0720 %


Processing complete.  10.531 CPU seconds used.
