
This summary file was generated by TurbSim (from OpenFAST-v3.4.1) on 25-Nov-2024 at 22:20:20.


Runtime Options:

      2028  Random seed #1
         0  Random seed #2
         F  Output binary HH turbulence parameters?
         F  Output formatted turbulence parameters?
         F  Output AeroDyn HH files?
         T  Output AeroDyn FF files?
         F  Output BLADED FF files?
         F  Output tower data?
         F  Output HAWC FF files?
         F  Output formatted FF files?
         T  Output coherent turbulence time step file?
 0 -  NONE  IEC turbulence models scaled to exact specified standard deviation


Turbine/Model Specifications:

        31  Vertical grid-point matrix dimension
        41  Horizontal grid-point matrix dimension
     0.100  Time step [seconds]
   200.000  Analysis time [seconds]
   200.000  Usable output time [seconds]
   151.000  Hub height [m]
   300.000  Grid height [m]
   600.000  Grid width [m]
     0.000  Vertical flow angle [degrees]
     0.000  Horizontal flow angle [degrees]


Meteorological Boundary Conditions:

    IECVKM  IEC von Karman spectral model
         1  IEC standard: IEC 61400-1 Ed. 2: 1999
    10.000  Percent turbulence intensity, IEC 61400-1 Ed. 2: 1999
       NTM  IEC Normal Turbulence Model
       N/A  IEC Extreme Turbulence Model (ETM) "c" parameter [m/s]
       PL   Wind profile type
   150.000  Reference height [m]
    10.000  Reference wind speed [m/s]
       N/A  Jet height [m]
     0.100  Power law exponent
     0.030  Surface roughness length [m]


Non-IEC Meteorological Boundary Conditions:

       N/A  Site latitude [degrees]
       N/A  Gradient Richardson number
       N/A  Friction or shear velocity [m/s]
       N/A  Mixing layer depth [m]
       N/A  Mean hub u'w' Reynolds stress
       N/A  Mean hub u'v' Reynolds stress
       N/A  Mean hub v'w' Reynolds stress


Spatial Coherence Models:

       IEC  u-component coherence model
       IEC  v-component coherence model
       IEC  w-component coherence model
(   12.000, 0.659E-03)  u-component coherence parameters
(   12.000, 0.659E-03)  v-component coherence parameters
(   12.000, 0.659E-03)  w-component coherence parameters
       N/A  Coherence exponent


You have requested that the following file(s) be generated:

   ./TurbulentWind_20WT/FOWTs/Wind\InflowWind_High_WT4.bts (AeroDyn/TurbSim full-field wind file)


Turbulence Simulation Scaling Parameter Summary:

   Turbulence model used                            =  IEC von Karman
   Turbulence characteristic                        =  User-specified
   IEC standard                                     =  IEC 61400-1 Ed. 2: 1999
   Mean wind speed at hub height                    =   10.007 m/s
   Characteristic value of standard deviation       =    1.001 m/s
   Turbulence scale                                 =   21.000 m
   Isotropic integral scale                         =   73.500 m
   Characteristic value of hub turbulence intensity =   10.000%
   Gradient Richardson number                       =    0.000

   Wind profile type                                =  Power law
   Power law exponent                               =    0.100
   Mean shear across rotor disk                     =    0.016 (m/s)/m
   Assumed rotor diameter                           =  300.000 m
   Surface roughness length                         =    0.030 m

   Nyquist frequency of turbulent wind field        =    5.000 Hz

   Number of time steps in the FFT                  =     2600
   Number of time steps output                      =     2600
   Number of points simulated                       =     1271


Mean Flow Angles:

   Vertical   =   0.0 degrees
   Horizontal =   0.0 degrees

Mean Wind Speed Profile:

   Height    Wind Speed   Horizontal Angle  Vertical Angle  U-comp (X)   V-comp (Y)   W-comp (Z)
     (m)        (m/s)         (degrees)       (degrees)       (m/s)        (m/s)        (m/s)   
   ------    ----------   ----------------  --------------  ----------   ----------   ----------
    301.0       10.72            0.00            0.00         10.72         0.00         0.00
    291.0       10.69            0.00            0.00         10.69         0.00         0.00
    281.0       10.65            0.00            0.00         10.65         0.00         0.00
    271.0       10.61            0.00            0.00         10.61         0.00         0.00
    261.0       10.57            0.00            0.00         10.57         0.00         0.00
    251.0       10.53            0.00            0.00         10.53         0.00         0.00
    241.0       10.49            0.00            0.00         10.49         0.00         0.00
    231.0       10.44            0.00            0.00         10.44         0.00         0.00
    221.0       10.40            0.00            0.00         10.40         0.00         0.00
    211.0       10.35            0.00            0.00         10.35         0.00         0.00
    201.0       10.30            0.00            0.00         10.30         0.00         0.00
    191.0       10.24            0.00            0.00         10.24         0.00         0.00
    181.0       10.19            0.00            0.00         10.19         0.00         0.00
    171.0       10.13            0.00            0.00         10.13         0.00         0.00
    161.0       10.07            0.00            0.00         10.07         0.00         0.00
    151.0       10.01            0.00            0.00         10.01         0.00         0.00
    141.0        9.94            0.00            0.00          9.94         0.00         0.00
    131.0        9.87            0.00            0.00          9.87         0.00         0.00
    121.0        9.79            0.00            0.00          9.79         0.00         0.00
    111.0        9.70            0.00            0.00          9.70         0.00         0.00
    101.0        9.61            0.00            0.00          9.61         0.00         0.00
     91.0        9.51            0.00            0.00          9.51         0.00         0.00
     81.0        9.40            0.00            0.00          9.40         0.00         0.00
     71.0        9.28            0.00            0.00          9.28         0.00         0.00
     61.0        9.14            0.00            0.00          9.14         0.00         0.00
     51.0        8.98            0.00            0.00          8.98         0.00         0.00
     41.0        8.78            0.00            0.00          8.78         0.00         0.00
     31.0        8.54            0.00            0.00          8.54         0.00         0.00
     21.0        8.22            0.00            0.00          8.22         0.00         0.00
     11.0        7.70            0.00            0.00          7.70         0.00         0.00
      1.0        6.06            0.00            0.00          6.06         0.00         0.00


Harvested Random Seeds after Generation of the Random Numbers:

   1974471557 Harvested seed # 1
   1971657505 Harvested seed # 2


Hub-Height Simulated Turbulence Statistical Summary:

   Type of Wind        Min (m/s)   Mean (m/s)    Max (m/s)  Sigma (m/s)       TI (%)
   ----------------    ---------   ----------    ---------  -----------       ------
   Longitudinal (u)         6.84        10.01        13.10        0.855        8.542
   Lateral (v)             -2.61         0.00         3.07        0.889        8.885
   Vertical (w)            -2.26         0.00         2.75        0.918        9.173
   U component              6.84        10.01        13.10        0.855        8.542
   V component             -2.61         0.00         3.07        0.889        8.885
   W component             -2.26         0.00         2.75        0.918        9.173
   Horizontal (U&V)         6.84        10.05        13.11        0.851        8.469
   Total                    7.03        10.09        13.13        0.844        8.361

                       Min Reynolds     Mean Reynolds    Max Reynolds    Correlation
   Product             Stress (m/s)^2   Stress (m/s)^2   Stress (m/s)^2  Coefficient
   ----------------    --------------   --------------   --------------  -----------
   u'w'                     -5.079            -0.135             2.969        -0.172
   u'v'                     -2.899             0.082             2.896         0.108
   v'w'                     -4.169            -0.018             4.296        -0.022


   Friction Velocity (Ustar)  =      0.367 m/s
   Maximum Instantaneous TKE  =      6.314 (m/s)^2
   Maximum Instantaneous CTKE =      2.559 (m/s)^2


Grid Point Variance Summary:

   Y-coord -300.00 -285.00 -270.00 -255.00 -240.00 -225.00 -210.00 -195.00 -180.00 -165.00 -150.00 -135.00 -120.00 -105.00  -90.00  -75.00  -60.00  -45.00  -30.00  -15.00    0.00   15.00   30.00   45.00   60.00   75.00   90.00  105.00  120.00  135.00  150.00  165.00  180.00  195.00  210.00  225.00  240.00  255.00  270.00  285.00  300.00

   Height   Standard deviation at grid points for the u component:
   301.00    0.908   0.972   0.929   0.978   1.044   0.957   0.941   0.930   0.990   0.833   0.879   0.942   1.044   1.167   1.278   1.333   1.257   1.305   1.103   1.232   1.038   1.083   0.995   0.861   0.930   0.870   0.945   0.756   0.927   0.827   0.875   0.853   0.812   0.761   0.821   0.924   0.985   1.050   1.140   0.925   0.897
   291.00    1.047   1.078   1.086   1.093   1.001   0.993   1.006   0.979   0.996   0.868   0.916   0.928   1.083   1.153   1.158   1.203   1.235   1.171   1.162   1.141   1.125   1.032   0.917   0.985   1.055   1.010   0.972   0.852   0.923   0.856   0.872   0.850   0.904   0.800   0.911   0.879   0.897   1.032   1.075   0.862   0.888
   281.00    1.124   1.136   1.106   1.098   0.992   0.953   1.075   0.960   1.024   1.089   0.930   0.877   1.058   1.222   1.133   1.174   1.162   1.165   1.129   1.173   1.126   1.078   0.920   0.926   1.080   1.025   0.904   0.904   0.947   0.964   0.887   0.816   0.901   0.883   0.855   0.808   0.833   1.014   1.063   0.852   0.953
   271.00    1.048   1.115   1.130   1.064   1.083   1.114   1.067   0.947   0.964   0.970   1.024   0.947   1.188   1.094   1.106   1.170   1.140   1.118   0.918   1.002   1.008   1.029   0.857   0.905   1.115   0.916   1.001   0.959   0.898   0.996   0.944   0.867   0.761   0.861   0.789   0.717   0.882   1.004   1.070   0.949   1.028
   261.00    0.969   1.027   1.136   1.209   1.141   0.970   0.927   0.932   0.941   1.073   1.180   1.010   1.178   1.117   1.021   1.190   1.161   0.933   0.909   0.853   0.925   0.989   0.802   0.841   1.031   1.034   0.885   0.962   0.958   1.034   1.028   0.855   0.840   0.875   0.891   0.795   0.937   0.931   1.194   1.027   1.035
   251.00    1.036   1.100   1.124   1.119   1.043   0.913   0.933   0.946   1.079   1.056   1.084   1.079   1.153   0.987   0.978   1.022   1.077   1.065   0.977   0.886   0.909   0.879   0.975   1.176   1.033   1.022   1.020   1.048   1.072   0.923   1.039   0.894   0.879   0.868   0.920   0.791   0.932   1.122   1.221   1.176   0.940
   241.00    0.915   1.049   1.058   1.141   1.018   0.872   0.964   0.970   1.059   1.033   0.974   1.121   1.147   1.051   1.020   1.130   0.960   1.116   0.877   0.797   0.930   0.933   1.019   1.160   1.027   1.043   1.017   1.038   1.130   1.014   1.005   1.068   0.988   0.889   0.954   0.843   1.013   1.145   1.130   1.198   1.020
   231.00    0.881   0.925   1.013   1.063   1.011   0.891   0.939   0.955   0.996   0.819   0.985   1.069   1.065   1.055   1.001   1.072   1.049   1.069   0.975   0.843   0.933   0.949   1.045   1.061   1.028   0.949   0.928   1.009   1.031   0.984   1.003   1.114   0.954   1.017   0.899   0.876   1.077   1.064   1.043   1.144   0.872
   221.00    0.857   0.827   0.885   1.013   0.935   0.901   0.929   0.909   0.875   0.976   1.054   1.094   0.886   1.004   1.069   1.076   1.052   1.003   1.031   0.952   0.991   1.084   1.062   1.046   0.911   0.943   0.851   0.918   0.914   0.978   1.165   1.111   0.978   0.936   0.888   0.955   1.071   0.993   1.007   1.010   0.934
   211.00    0.881   0.963   0.892   0.937   0.900   0.943   0.864   0.871   0.836   0.950   0.902   0.879   0.909   0.938   1.060   0.974   1.092   0.997   0.961   1.002   0.956   1.042   1.043   1.108   0.943   0.989   0.925   0.878   0.908   0.928   1.126   1.055   1.041   0.973   0.813   0.890   1.083   1.116   0.991   0.941   0.942
   201.00    0.938   0.975   0.930   0.983   0.986   1.034   0.858   0.767   0.879   0.853   0.813   0.899   0.845   0.887   0.998   0.972   0.894   1.065   0.999   1.146   0.935   1.074   0.969   1.013   1.064   0.888   0.869   0.844   0.831   0.951   1.014   1.030   0.990   0.890   0.801   0.929   1.161   1.108   0.978   1.036   1.040
   191.00    0.965   0.990   0.931   1.012   1.017   0.964   0.807   0.810   0.851   0.869   0.803   0.825   0.833   0.907   0.955   0.999   0.936   0.899   1.008   1.014   1.035   0.991   0.971   1.034   0.985   0.896   0.742   0.842   0.844   0.815   0.927   0.926   0.997   0.984   0.889   0.984   1.040   0.961   0.892   0.947   1.097
   181.00    1.074   0.962   0.946   0.955   0.895   0.865   0.848   0.915   0.789   0.831   0.837   0.904   0.838   0.888   0.914   0.904   0.905   0.928   0.984   1.016   0.900   0.974   1.025   1.021   1.058   1.086   0.837   0.858   0.855   0.848   0.951   0.974   0.915   0.996   0.938   0.869   0.843   0.909   0.868   0.933   1.018
   171.00    0.925   0.937   0.765   0.919   0.872   0.896   0.811   0.807   0.856   0.794   0.803   0.843   0.956   0.928   0.798   0.928   0.916   0.893   0.907   0.928   0.933   1.006   1.032   0.925   0.988   1.050   0.878   0.832   0.806   0.922   0.916   0.943   0.843   1.019   0.931   0.895   0.951   0.967   0.910   0.977   0.913
   161.00    0.840   0.966   0.854   0.959   0.827   0.900   0.773   0.861   0.883   0.967   0.885   0.911   0.920   0.943   0.920   0.826   0.883   0.886   0.906   0.901   0.888   0.983   0.880   0.823   0.834   0.949   1.001   0.943   0.749   0.944   0.978   0.923   0.839   0.856   0.970   0.979   0.917   0.852   0.908   0.900   1.002
   151.00    0.967   0.951   1.050   1.049   0.831   0.885   0.952   0.962   0.893   0.909   1.071   1.003   0.875   0.944   0.846   0.734   0.926   0.905   0.839   0.895   0.855   0.898   0.940   0.869   0.889   1.002   0.882   0.857   0.870   0.920   1.002   0.864   0.783   0.814   0.808   0.909   0.938   0.876   0.940   0.915   1.078
   141.00    0.853   1.060   1.054   1.047   0.947   0.892   1.040   1.008   0.897   0.901   1.017   0.983   0.831   0.868   0.843   0.847   0.902   0.974   0.927   0.830   0.889   0.879   0.983   0.929   0.962   0.987   0.850   0.860   0.930   0.875   0.908   0.877   0.721   0.840   0.894   0.836   0.853   0.877   0.937   0.998   0.992
   131.00    0.804   0.946   1.065   0.984   1.007   0.976   0.914   0.904   0.895   0.957   1.043   0.882   0.757   0.916   0.860   1.060   0.997   0.986   0.907   0.936   0.952   0.956   0.937   0.924   1.095   0.916   0.909   0.915   0.919   0.915   0.931   0.902   0.916   0.936   0.904   0.908   0.835   1.002   0.839   0.899   1.023
   121.00    0.884   0.899   0.993   0.917   0.993   1.169   1.162   0.978   1.074   0.929   0.825   0.903   0.850   0.831   0.934   1.023   0.999   0.874   1.060   0.878   0.826   0.908   0.995   1.126   1.111   0.897   0.885   0.898   0.886   0.859   0.899   1.004   1.067   0.956   0.950   0.845   0.947   0.896   0.988   0.923   1.016
   111.00    0.920   0.893   0.933   0.905   0.990   1.125   1.132   1.042   1.012   0.870   0.880   0.937   0.933   0.837   0.910   1.005   0.926   1.007   0.969   0.968   0.862   0.926   0.927   1.035   1.070   0.903   0.906   0.904   0.906   0.872   1.028   1.094   0.999   0.948   0.945   0.957   0.930   0.972   0.965   0.981   1.049
   101.00    0.938   0.992   0.977   0.828   0.874   0.946   1.077   1.017   0.949   0.979   0.785   0.869   0.929   0.860   0.951   0.936   0.873   0.944   0.923   0.943   1.021   1.077   0.951   1.020   1.064   1.015   1.005   0.923   0.937   1.001   0.963   1.034   0.965   0.951   0.998   1.028   1.013   1.032   0.990   1.022   1.146
    91.00    0.863   0.966   0.828   0.902   0.805   0.854   0.917   1.015   0.861   0.907   0.792   0.862   0.892   0.922   0.957   0.855   0.765   0.787   0.902   1.014   0.952   0.971   1.050   0.970   0.966   0.944   0.993   0.894   1.017   1.040   1.052   1.035   0.869   0.876   0.980   0.973   0.946   1.112   1.001   0.986   1.110
    81.00    0.856   0.861   0.870   0.934   0.907   0.988   0.941   0.999   0.866   1.021   0.879   0.954   0.898   0.891   0.987   0.927   0.792   0.828   0.926   0.898   1.006   1.010   1.005   0.916   0.952   0.943   0.949   0.882   1.116   1.131   1.076   0.983   0.971   0.980   1.061   0.962   1.166   1.053   0.938   1.038   1.069
    71.00    0.938   0.902   0.865   0.911   0.890   0.926   0.957   0.959   0.886   1.029   0.916   0.910   1.038   0.898   0.828   0.834   0.766   0.824   0.811   0.890   0.959   0.936   0.939   0.873   0.891   0.940   1.109   1.125   1.139   1.175   0.994   0.984   0.990   1.050   1.103   1.133   1.117   1.072   1.059   1.112   1.034
    61.00    0.928   0.981   0.850   0.908   0.944   0.796   0.863   0.799   0.848   1.006   0.993   0.954   0.992   0.982   0.993   0.875   0.918   0.942   0.972   0.952   0.961   0.876   0.889   0.816   0.884   0.998   1.151   1.114   0.947   1.070   0.993   1.068   1.011   1.008   1.122   1.091   1.138   1.107   1.075   1.084   1.123
    51.00    0.846   0.885   0.949   0.943   0.978   0.852   0.796   0.818   0.785   0.933   0.947   0.929   0.963   0.885   0.987   0.936   0.901   1.005   0.978   0.983   0.916   0.839   0.831   0.950   0.817   0.867   1.044   1.036   0.885   1.061   0.979   0.999   0.972   1.034   1.018   1.059   0.995   1.027   1.008   1.022   1.006
    41.00    1.036   0.961   0.933   0.888   0.970   0.807   0.763   0.772   0.816   0.925   0.917   0.971   0.916   0.978   1.067   0.963   0.858   0.927   0.999   1.029   0.957   0.845   0.815   0.920   0.962   0.933   0.940   1.089   0.914   0.930   0.888   0.973   0.961   1.000   1.102   1.092   1.127   1.069   0.897   0.929   1.016
    31.00    1.004   0.999   0.988   0.837   0.921   0.888   0.832   0.871   0.800   0.883   0.859   0.850   0.818   0.871   1.033   0.969   0.829   0.940   0.922   0.919   0.978   0.943   0.914   1.034   0.973   0.896   1.092   1.100   0.931   0.782   0.822   0.962   0.972   0.978   1.048   1.178   1.005   0.968   0.900   0.918   1.029
    21.00    0.979   0.978   0.990   0.934   0.867   0.818   0.778   0.815   0.730   0.901   0.932   0.862   0.944   0.900   1.002   0.957   0.869   0.985   0.884   0.796   0.863   0.925   0.993   1.047   1.007   0.974   1.174   1.159   0.965   0.953   0.848   0.842   1.024   1.070   1.032   1.053   1.067   1.091   0.936   0.887   0.921
    11.00    0.989   0.848   0.947   0.884   0.838   0.758   0.825   0.718   0.793   0.829   0.873   0.929   0.986   0.993   0.989   0.977   0.856   1.024   0.906   0.860   0.856   0.893   0.938   0.986   0.945   1.024   1.092   1.081   1.026   0.936   0.876   0.882   1.154   1.185   1.182   1.090   0.946   1.033   1.074   0.928   0.908
     1.00    0.963   0.878   0.892   0.906   0.856   0.836   0.914   0.872   0.772   0.836   0.876   0.827   0.946   0.865   0.931   0.981   0.894   0.984   0.955   0.763   0.920   0.762   0.864   0.974   0.975   1.078   1.035   1.013   1.031   0.905   0.908   0.867   0.996   1.104   1.186   1.028   0.933   0.961   1.104   0.906   1.043

   Height   Standard deviation at grid points for the v component:
   301.00    0.856   0.934   0.972   1.123   1.028   0.958   0.917   1.038   1.078   0.993   0.969   0.935   0.967   0.987   1.106   1.092   1.154   1.124   0.871   0.868   0.849   0.975   1.089   1.182   1.066   1.086   1.162   1.145   1.097   1.036   0.971   0.991   1.020   0.959   0.901   0.890   0.910   1.019   1.025   1.064   1.055
   291.00    0.940   0.976   1.027   1.150   1.189   1.110   0.997   1.076   0.955   1.000   0.934   0.960   0.945   0.949   1.032   1.135   1.062   1.049   0.929   0.904   0.939   0.922   1.081   1.111   1.037   1.005   1.108   1.082   1.018   0.913   0.893   0.964   0.976   0.958   0.970   0.827   0.972   1.006   1.012   1.012   1.075
   281.00    0.896   0.903   0.940   1.056   1.063   1.006   1.094   1.092   0.936   0.912   0.922   0.943   0.914   0.981   0.895   0.971   0.977   0.928   0.848   0.851   0.921   0.999   1.039   1.132   1.113   1.116   1.148   1.154   1.010   0.837   0.888   0.921   0.942   0.956   0.921   0.843   0.867   0.990   0.974   0.970   1.044
   271.00    0.842   0.905   0.979   0.999   0.982   0.981   1.038   0.994   0.992   0.793   0.853   0.908   0.907   0.910   0.944   1.004   0.910   0.867   0.780   0.885   1.034   0.947   0.926   1.045   1.036   1.049   1.082   1.046   0.957   0.916   0.881   0.787   0.890   0.928   0.831   0.818   0.994   0.904   0.996   1.013   1.006
   261.00    0.897   0.869   0.923   0.952   0.993   0.980   1.063   0.972   0.918   0.918   0.879   0.864   0.922   0.847   0.997   0.861   0.896   0.936   0.882   0.835   0.933   1.000   1.066   1.012   0.966   1.079   0.917   0.920   1.021   0.988   0.911   0.889   0.897   0.888   0.924   1.011   1.012   0.965   1.036   1.067   1.125
   251.00    0.894   0.863   0.881   0.892   0.936   0.995   1.066   1.114   0.890   0.935   0.975   0.980   1.005   0.924   0.947   0.909   0.971   0.977   0.907   0.924   0.920   0.957   1.017   0.993   1.033   1.040   0.965   0.883   0.917   0.990   0.926   1.011   0.887   0.839   0.999   0.951   1.017   1.006   0.934   0.924   1.045
   241.00    0.938   1.002   0.923   0.938   0.877   0.924   0.999   1.087   1.052   1.085   0.900   0.879   1.007   0.895   0.898   1.028   0.911   1.038   1.012   0.897   0.869   0.949   0.959   0.883   0.978   1.017   0.999   0.924   0.894   0.884   1.041   1.041   0.893   0.783   0.876   0.957   0.986   1.006   0.905   0.975   1.010
   231.00    0.819   0.912   0.950   0.975   0.939   0.931   1.032   1.035   1.060   1.021   0.973   0.870   0.907   1.000   0.967   0.975   0.931   0.964   1.086   0.984   0.966   0.917   1.053   0.910   0.940   1.083   0.928   0.845   0.742   0.810   0.937   0.983   0.963   0.829   0.962   0.947   0.908   0.933   0.875   0.964   0.967
   221.00    0.887   0.887   0.953   0.882   0.999   1.000   0.954   1.006   1.036   0.983   0.970   1.086   1.008   0.988   1.072   0.971   0.906   1.063   0.997   1.032   1.012   0.979   0.961   0.970   1.005   1.056   0.892   0.913   0.789   0.878   0.910   1.016   0.923   0.917   0.857   0.865   0.916   0.918   0.979   0.953   1.016
   211.00    0.833   0.867   0.853   0.852   0.970   0.981   0.846   0.897   0.987   0.925   0.954   0.989   1.083   1.061   0.979   0.926   0.942   0.996   0.996   0.967   1.002   0.971   1.061   1.074   0.997   0.984   1.018   0.883   0.802   0.848   0.921   0.985   0.946   1.007   0.883   0.914   0.895   0.923   1.000   0.915   1.010
   201.00    0.763   0.860   0.839   0.836   0.886   0.889   0.843   0.833   0.916   0.882   0.916   0.972   0.950   1.027   0.872   0.810   0.942   0.973   1.081   0.965   0.956   0.944   1.072   1.003   0.942   0.947   0.955   0.922   0.911   0.940   0.953   0.996   1.039   0.937   0.954   0.977   0.977   0.929   0.974   0.964   0.956
   191.00    0.933   0.892   0.891   0.837   0.877   0.845   0.833   0.843   0.883   0.877   0.910   0.952   0.911   0.908   0.972   0.895   0.962   1.026   1.049   0.884   0.902   0.831   0.914   0.970   0.964   0.975   0.873   0.947   0.942   0.989   0.992   0.993   1.025   0.887   0.932   0.980   1.033   1.092   1.057   1.015   1.006
   181.00    0.937   0.947   0.902   0.819   0.894   0.939   0.854   0.893   0.843   0.863   0.911   0.917   0.975   0.911   0.892   0.959   1.073   1.053   0.968   0.865   0.863   0.903   0.908   0.963   0.962   0.995   0.945   0.911   0.827   0.884   0.931   0.945   0.986   0.990   0.978   1.001   0.945   1.150   1.046   1.011   1.022
   171.00    0.890   0.975   0.944   0.946   0.925   0.967   0.887   0.897   0.848   0.844   0.845   0.831   1.001   0.953   0.824   0.925   1.005   1.031   1.029   0.961   0.922   0.897   0.975   0.923   1.037   1.040   0.960   0.818   0.845   0.940   0.969   0.958   1.044   1.052   0.933   0.999   1.037   1.128   1.106   1.074   0.967
   161.00    0.908   0.863   0.944   0.924   0.854   0.900   0.846   0.884   0.882   0.799   0.908   0.887   0.947   0.894   0.963   0.956   0.924   0.968   0.983   0.931   0.931   0.910   0.922   0.921   0.935   0.969   0.880   0.809   0.854   0.898   0.968   0.846   0.952   0.981   0.914   0.968   1.048   1.136   1.106   1.048   1.040
   151.00    1.073   0.912   0.895   0.954   0.886   0.913   0.921   0.886   0.890   0.879   0.874   0.823   0.930   0.972   0.980   0.942   0.977   1.001   0.982   0.943   0.889   0.924   0.950   0.918   0.940   0.989   0.953   0.826   0.871   0.994   0.920   0.808   0.909   0.911   0.960   0.973   1.063   1.039   0.987   1.004   1.059
   141.00    1.029   0.947   0.999   0.933   0.863   0.874   0.843   0.900   0.860   0.864   0.889   0.877   1.016   0.986   0.938   0.967   1.042   0.998   0.984   0.988   0.989   0.861   0.974   0.979   0.913   1.064   0.976   1.004   0.952   0.954   0.927   0.878   0.954   0.924   0.907   0.938   0.958   1.029   0.971   0.977   1.074
   131.00    1.048   0.997   0.841   0.883   0.830   0.896   0.932   0.898   0.926   0.872   1.023   0.906   1.031   1.006   0.994   1.109   1.042   1.033   1.092   0.993   0.979   0.874   0.937   0.877   0.881   0.978   0.966   0.992   0.977   0.895   0.976   1.056   0.996   0.955   0.944   0.998   0.993   0.952   0.935   0.945   1.003
   121.00    0.908   0.891   0.824   0.890   0.792   0.941   0.890   0.992   0.936   0.890   0.985   0.956   0.991   1.054   0.995   1.037   1.044   0.991   1.051   1.105   0.957   0.928   0.933   0.884   0.801   0.906   0.972   0.940   0.998   0.895   0.952   0.999   1.049   1.091   1.201   1.071   1.051   0.928   0.802   0.899   1.005
   111.00    1.024   0.805   0.862   0.862   0.852   1.035   0.940   0.932   0.956   0.876   1.011   0.960   0.924   0.970   1.015   0.961   1.011   1.031   1.083   1.012   0.965   0.984   0.842   0.902   0.771   0.832   0.878   1.020   1.071   0.893   0.983   0.965   1.031   1.112   1.077   1.147   1.086   0.872   0.857   0.911   1.068
   101.00    0.950   0.878   0.894   0.870   0.879   0.975   0.949   0.910   1.000   0.985   0.938   0.978   0.944   0.957   1.059   1.025   1.129   1.152   1.042   1.055   0.960   0.948   0.819   0.887   0.815   0.895   0.895   1.082   1.055   0.970   0.996   1.063   1.012   1.111   1.094   1.087   0.948   0.964   0.927   0.899   1.071
    91.00    0.960   0.882   0.982   0.916   0.889   0.896   0.885   0.882   0.967   0.973   0.920   0.947   0.912   0.974   1.012   1.077   1.098   1.043   1.111   1.005   0.919   0.889   0.922   0.939   0.843   0.858   1.010   1.046   1.116   1.020   1.123   1.063   0.990   1.093   1.067   0.989   1.093   0.894   0.924   1.017   1.124
    81.00    0.954   0.846   0.913   0.948   0.932   0.932   0.928   0.949   0.927   1.013   0.944   1.011   0.974   1.046   1.022   1.085   1.032   0.935   0.938   0.967   0.963   0.982   0.915   0.944   0.796   0.892   1.000   1.007   1.033   1.052   1.063   1.076   0.981   1.107   1.035   1.043   1.030   0.926   1.017   1.114   1.078
    71.00    0.888   0.931   0.913   0.960   0.922   0.852   0.943   0.956   0.954   0.890   0.892   0.928   0.996   1.036   0.983   1.027   0.888   0.966   0.926   0.895   1.020   0.986   0.891   0.968   0.850   0.896   0.952   0.871   0.977   0.958   1.004   1.093   1.059   1.040   0.997   0.896   0.875   0.980   1.046   1.034   0.978
    61.00    0.946   0.962   0.931   0.957   0.883   0.951   0.944   0.890   0.965   0.854   0.957   0.931   1.033   0.988   0.984   1.050   1.033   1.124   0.927   0.860   0.958   1.022   0.966   0.967   0.930   0.937   0.846   1.009   0.954   0.977   1.025   0.902   0.959   0.992   0.998   0.934   0.944   0.859   0.922   0.889   0.935
    51.00    0.857   0.997   0.982   1.036   0.907   0.967   0.883   0.969   0.926   0.946   0.902   0.911   0.979   1.004   1.065   1.030   0.974   1.068   0.926   0.890   0.890   1.043   0.982   0.946   0.957   0.949   0.927   0.935   0.990   1.021   1.019   1.019   0.884   0.981   0.977   0.922   1.017   0.882   0.858   0.873   0.898
    41.00    0.858   0.881   1.051   1.170   1.162   0.906   0.849   0.855   0.903   0.896   0.937   0.881   0.988   0.976   0.979   1.029   1.028   1.052   1.043   1.051   0.919   0.982   1.100   1.016   1.033   0.954   0.915   0.841   0.913   0.950   0.884   0.967   0.922   0.908   1.031   1.016   0.882   0.900   0.916   0.905   1.006
    31.00    0.868   0.864   0.977   1.055   1.113   0.895   0.927   0.812   0.816   0.906   0.968   1.036   1.021   0.970   0.979   0.994   1.057   1.055   0.976   1.007   0.926   0.938   0.935   0.909   0.940   0.975   0.917   0.954   0.973   1.008   0.872   0.990   0.928   0.856   0.998   0.996   1.014   1.056   0.917   0.921   1.048
    21.00    0.919   0.961   1.006   0.967   1.003   0.918   0.975   0.843   0.874   0.898   0.949   1.101   1.040   0.972   1.015   0.983   1.077   1.072   1.015   0.913   0.971   0.957   0.848   0.853   0.829   0.977   0.880   0.976   0.897   0.892   0.911   1.042   1.024   0.988   0.989   1.052   1.156   0.980   0.835   1.005   0.901
    11.00    0.960   0.949   0.969   1.023   1.049   0.935   0.964   0.991   0.872   0.981   0.908   0.990   1.036   1.004   1.061   0.868   0.932   0.958   1.003   0.950   0.961   1.048   0.888   0.870   0.923   0.957   1.026   0.995   0.824   0.870   0.913   1.044   1.053   0.915   1.006   1.095   1.110   0.920   0.736   0.926   0.847
     1.00    0.974   0.979   0.933   1.006   0.988   0.840   0.908   0.922   0.908   0.988   1.029   1.014   1.095   1.019   1.018   0.908   0.867   0.934   0.970   1.017   0.907   0.956   0.916   0.930   0.852   0.894   0.908   0.903   0.837   0.945   0.955   0.970   0.992   0.943   1.016   1.014   1.076   0.923   0.825   0.913   0.999

   Height   Standard deviation at grid points for the w component:
   301.00    0.885   0.963   1.081   0.999   0.952   1.037   0.943   1.010   0.994   0.959   0.928   0.909   0.880   0.925   0.888   0.944   0.909   0.950   0.943   0.888   0.795   0.859   1.082   1.038   0.916   0.941   0.978   1.030   0.913   0.919   0.892   1.037   1.111   1.117   0.939   0.952   0.909   0.963   1.034   1.025   1.028
   291.00    0.877   0.834   0.876   0.969   1.002   1.032   0.923   0.989   0.963   0.954   0.980   0.875   0.891   0.951   0.868   0.885   0.862   1.032   0.949   0.855   0.784   0.923   0.960   0.965   0.937   0.863   0.948   0.932   0.940   0.982   1.000   1.090   1.141   1.034   0.952   0.975   0.963   1.053   0.921   1.030   1.017
   281.00    0.832   0.854   0.941   1.011   0.958   1.081   0.922   0.928   0.940   0.944   0.904   1.007   0.862   0.980   0.861   0.857   0.904   0.937   0.929   0.940   0.984   0.927   1.040   0.961   0.895   0.863   0.932   0.869   0.977   0.941   0.972   1.047   1.078   1.047   1.075   0.943   0.985   1.082   0.957   0.925   1.018
   271.00    0.828   0.847   0.957   0.959   0.913   1.002   0.935   1.014   0.848   0.938   0.865   0.844   0.914   0.950   0.850   0.827   0.814   0.937   0.944   0.963   1.056   1.057   0.973   0.893   0.967   0.952   0.876   0.985   0.973   0.972   0.903   0.998   1.039   0.909   1.055   1.045   1.004   1.000   0.954   1.025   0.906
   261.00    0.911   0.851   0.909   0.958   0.985   0.878   0.855   0.895   0.978   0.878   0.958   0.955   0.925   0.922   0.889   0.842   0.917   0.991   0.996   1.039   1.016   1.051   0.901   0.955   1.040   0.931   0.945   0.909   1.072   1.031   0.998   1.015   0.987   0.922   1.096   0.993   1.056   0.924   0.948   1.008   0.926
   251.00    0.942   0.927   0.944   1.048   0.948   0.856   0.831   0.885   0.988   0.932   0.874   0.957   0.787   0.908   0.939   0.919   0.911   0.841   0.922   1.007   1.003   1.009   0.917   0.923   0.958   0.975   0.969   0.945   1.063   1.046   0.973   1.040   0.998   0.940   1.026   1.008   1.090   1.009   0.941   1.014   0.949
   241.00    0.910   0.980   0.974   1.001   1.049   0.924   0.923   0.926   1.017   0.966   1.024   0.927   1.032   0.867   0.881   0.946   0.929   0.804   0.835   0.982   1.027   1.056   1.000   1.009   0.898   0.873   0.964   0.971   1.076   1.029   0.983   0.941   0.986   0.907   0.936   1.067   1.058   1.137   0.941   0.949   1.023
   231.00    0.994   0.981   0.976   0.944   0.989   1.015   0.979   0.957   0.983   1.009   0.992   0.985   0.967   0.829   0.972   1.047   0.844   0.938   0.876   0.992   1.033   0.915   1.068   0.910   0.959   0.916   0.983   0.964   0.967   1.086   1.000   0.967   0.959   0.897   0.824   1.009   1.048   1.035   1.036   0.896   0.991
   221.00    0.892   0.900   0.919   1.007   1.020   1.020   0.917   0.971   0.960   0.999   0.871   0.899   0.936   0.974   0.982   1.002   0.947   1.070   0.928   1.010   0.881   1.014   0.964   0.981   0.962   0.905   0.935   0.965   0.972   1.018   0.959   1.002   0.952   0.968   0.968   1.024   1.101   1.080   0.965   0.897   0.930
   211.00    0.931   0.902   0.967   0.999   1.010   0.933   0.917   0.863   0.890   0.865   0.894   0.813   0.882   0.868   0.949   0.958   1.084   1.047   0.986   1.074   1.052   1.048   0.962   1.095   0.992   0.846   0.937   0.876   0.989   1.007   0.942   1.052   0.999   0.920   0.870   0.931   1.033   1.029   0.995   0.923   0.977
   201.00    0.966   0.918   0.897   0.897   0.951   0.924   0.821   0.903   0.877   0.762   0.791   0.847   0.952   0.899   0.953   0.918   1.019   0.950   1.042   1.015   0.959   0.965   1.082   1.030   1.058   0.981   0.918   0.838   0.934   1.033   0.868   0.914   1.002   0.926   0.908   0.941   0.996   0.997   0.971   0.941   0.867
   191.00    0.976   0.861   1.009   0.959   0.969   0.957   0.908   0.949   0.964   0.837   0.916   0.903   0.854   0.949   0.983   0.993   1.026   0.922   0.980   0.929   1.009   0.988   0.974   0.984   0.919   0.976   0.961   0.930   0.935   0.997   0.904   0.819   0.925   0.992   0.873   0.964   1.040   0.925   0.938   0.882   0.829
   181.00    0.934   0.897   1.024   0.860   0.974   1.003   1.015   1.049   1.014   0.944   0.940   0.892   0.819   0.910   1.008   0.982   1.027   0.961   0.884   0.961   0.969   0.947   0.908   0.934   0.896   0.935   0.959   0.878   0.865   0.886   0.954   0.858   0.952   0.923   0.856   0.943   1.074   0.997   0.897   0.839   0.837
   171.00    0.982   0.959   0.999   0.996   1.013   0.930   1.020   1.006   1.044   0.906   0.828   0.824   0.981   1.042   1.018   1.001   1.020   0.941   0.844   0.919   0.855   0.875   0.846   0.848   0.873   0.918   0.894   0.883   0.832   0.815   0.929   1.008   0.904   0.898   1.007   0.934   0.952   1.001   0.857   0.902   0.882
   161.00    1.055   0.977   0.992   1.016   1.062   1.032   0.919   1.077   1.092   0.960   0.884   0.923   1.045   1.020   0.948   0.880   0.988   0.904   0.841   0.882   0.890   0.935   0.822   0.896   0.919   0.819   0.918   0.913   0.896   0.890   0.845   0.901   0.857   0.891   0.916   0.924   1.000   0.979   0.924   0.887   0.945
   151.00    1.020   1.054   1.006   1.105   1.117   0.956   1.005   1.002   1.128   1.032   0.900   0.983   0.990   0.981   0.916   0.828   0.869   0.865   0.783   0.826   0.918   0.957   0.823   0.857   0.854   0.883   0.918   0.909   0.836   0.920   1.014   0.911   0.828   0.840   0.953   0.951   0.840   0.967   1.038   0.903   0.992
   141.00    1.000   1.022   1.080   1.149   1.120   1.046   1.035   0.958   1.040   0.959   0.855   0.976   0.896   0.908   0.882   0.829   0.928   0.878   0.824   0.808   0.850   0.871   0.884   0.857   0.839   0.979   0.919   0.880   0.892   0.936   0.966   0.976   0.970   0.841   0.954   0.981   0.890   0.979   1.057   0.926   0.982
   131.00    0.960   0.935   1.016   0.994   1.051   1.125   1.015   1.064   1.007   0.911   0.858   0.881   0.841   0.842   0.856   0.871   0.926   0.935   0.792   0.882   0.929   0.875   0.825   0.932   0.921   0.915   0.974   0.914   0.960   0.948   0.917   0.922   0.912   0.930   1.140   1.061   0.914   0.998   0.968   0.909   0.978
   121.00    1.039   1.063   0.895   0.893   1.027   1.027   1.046   1.080   1.109   0.954   0.843   0.882   0.842   0.811   0.875   0.818   0.888   0.828   0.833   0.902   0.953   0.904   1.006   1.049   0.943   0.940   0.924   0.931   0.982   0.951   0.912   0.890   0.970   1.071   1.092   1.144   0.928   1.014   0.958   1.006   1.060
   111.00    1.023   1.006   0.913   0.900   0.974   1.054   1.001   1.071   1.056   1.069   0.935   0.928   0.874   0.922   0.977   0.956   0.873   0.829   0.895   0.856   0.929   1.003   0.981   0.994   0.900   0.859   0.818   0.841   0.894   0.826   0.928   0.946   0.997   0.995   1.018   1.108   1.037   1.037   0.980   0.940   0.905
   101.00    0.868   0.955   0.892   0.916   0.887   0.971   1.011   1.028   0.945   0.964   1.007   1.038   0.881   1.048   0.996   0.960   0.910   0.928   0.927   0.877   0.838   0.979   0.939   0.989   0.891   0.824   0.795   0.927   0.844   0.939   1.005   1.015   0.974   1.021   0.940   1.016   1.016   1.069   1.037   1.031   0.842
    91.00    0.867   0.889   0.867   0.919   0.802   0.943   1.082   0.951   0.958   0.914   1.025   1.036   1.073   1.152   1.205   1.030   0.948   0.949   1.043   1.011   0.908   0.927   0.962   0.899   0.811   0.841   0.856   0.911   0.945   0.960   0.918   0.965   0.920   0.900   0.991   0.884   1.044   1.011   1.095   1.078   0.862
    81.00    0.907   0.851   0.900   0.878   0.814   0.949   1.093   1.001   0.937   0.977   0.964   1.006   1.130   1.168   1.161   1.124   0.962   0.952   0.967   1.044   0.873   0.832   0.866   0.934   0.855   0.795   0.870   0.830   0.913   0.909   0.934   0.887   0.932   0.894   0.928   0.938   1.035   1.051   0.987   0.989   0.972
    71.00    0.781   0.861   0.882   0.893   0.835   0.928   0.965   1.045   1.003   0.979   0.917   0.955   1.104   1.060   1.208   1.046   1.034   1.015   0.947   1.029   0.962   0.887   0.791   0.909   0.842   0.801   0.806   0.896   0.882   0.987   0.964   0.923   0.907   0.868   0.882   0.937   0.983   0.904   0.976   0.993   1.000
    61.00    0.996   0.917   0.938   0.864   0.939   0.838   0.848   0.867   1.013   1.025   0.935   1.054   1.110   1.211   1.119   1.027   1.036   0.975   1.005   0.987   0.961   0.967   0.912   0.854   0.875   0.889   0.833   0.925   0.925   0.967   0.961   0.899   0.893   0.829   0.848   1.017   0.971   0.957   0.922   0.831   0.807
    51.00    0.924   0.949   0.917   0.928   0.918   0.843   0.949   0.992   0.976   1.028   1.065   1.170   1.109   1.118   1.093   0.966   0.897   0.989   1.071   1.022   0.902   0.927   0.889   0.818   0.919   0.900   0.919   0.950   0.930   1.002   0.973   0.950   0.994   0.834   0.904   0.926   0.974   0.957   1.047   0.883   0.898
    41.00    0.915   1.002   0.879   0.935   0.786   0.978   0.896   0.924   0.966   1.011   1.070   1.125   1.124   1.132   1.050   0.899   0.893   1.055   0.960   0.958   0.924   0.981   0.878   0.906   0.965   0.919   0.925   0.992   0.914   0.985   0.935   1.015   0.912   0.892   0.867   0.969   0.959   0.921   0.926   0.856   0.858
    31.00    0.921   0.883   0.825   0.905   0.914   0.906   0.931   0.960   1.015   1.042   1.115   1.000   1.000   1.163   1.041   1.005   0.958   0.947   0.930   0.933   0.984   0.930   0.929   0.896   0.896   0.938   0.912   0.915   0.895   0.906   0.918   0.966   0.927   0.873   0.939   0.909   0.826   0.896   0.893   0.908   0.946
    21.00    1.062   1.032   0.902   0.989   0.954   0.953   0.957   0.902   0.983   0.973   0.979   1.005   1.037   1.137   1.059   1.119   1.119   1.020   1.005   0.974   0.970   0.888   0.908   0.852   0.888   0.892   0.864   0.819   0.878   0.911   0.940   0.959   1.000   0.832   0.906   0.909   0.966   0.873   0.979   0.912   0.899
    11.00    1.043   1.056   0.945   0.916   0.965   1.004   0.916   0.925   0.911   1.043   1.012   0.949   1.088   1.099   1.069   1.171   1.085   0.944   0.906   0.908   0.991   0.950   0.889   0.918   0.910   0.872   0.818   0.903   0.867   0.902   0.921   0.902   0.917   0.859   0.961   0.960   0.851   0.902   0.963   0.937   0.938
     1.00    0.974   1.049   0.907   0.896   0.893   1.009   0.979   0.948   0.898   0.966   1.080   1.035   1.120   1.082   1.049   1.004   0.993   0.888   0.898   1.008   0.940   0.949   0.863   0.900   0.788   0.876   0.973   0.964   0.822   0.916   0.935   0.937   0.894   0.868   0.893   0.981   0.889   0.938   0.863   0.885   0.921

   Mean standard deviation across all grid points:
      u component:    0.958 m/s
      v component:    0.959 m/s
      w component:    0.950 m/s


U-component (X) statistics from the interpolated hub point:

   Mean =  10.0066 m/s
   TI   =   8.5415 %


Processing complete.  10.281 CPU seconds used.
