
This summary file was generated by TurbSim (from OpenFAST-v3.4.1) on 25-Nov-2024 at 22:28:05.


Runtime Options:

      2040  Random seed #1
         0  Random seed #2
         F  Output binary HH turbulence parameters?
         F  Output formatted turbulence parameters?
         F  Output AeroDyn HH files?
         T  Output AeroDyn FF files?
         F  Output BLADED FF files?
         F  Output tower data?
         F  Output HAWC FF files?
         F  Output formatted FF files?
         T  Output coherent turbulence time step file?
 0 -  NONE  IEC turbulence models scaled to exact specified standard deviation


Turbine/Model Specifications:

        31  Vertical grid-point matrix dimension
        41  Horizontal grid-point matrix dimension
     0.100  Time step [seconds]
   200.000  Analysis time [seconds]
   200.000  Usable output time [seconds]
   151.000  Hub height [m]
   300.000  Grid height [m]
   600.000  Grid width [m]
     0.000  Vertical flow angle [degrees]
     0.000  Horizontal flow angle [degrees]


Meteorological Boundary Conditions:

    IECVKM  IEC von Karman spectral model
         1  IEC standard: IEC 61400-1 Ed. 2: 1999
    10.000  Percent turbulence intensity, IEC 61400-1 Ed. 2: 1999
       NTM  IEC Normal Turbulence Model
       N/A  IEC Extreme Turbulence Model (ETM) "c" parameter [m/s]
       PL   Wind profile type
   150.000  Reference height [m]
    10.000  Reference wind speed [m/s]
       N/A  Jet height [m]
     0.100  Power law exponent
     0.030  Surface roughness length [m]


Non-IEC Meteorological Boundary Conditions:

       N/A  Site latitude [degrees]
       N/A  Gradient Richardson number
       N/A  Friction or shear velocity [m/s]
       N/A  Mixing layer depth [m]
       N/A  Mean hub u'w' Reynolds stress
       N/A  Mean hub u'v' Reynolds stress
       N/A  Mean hub v'w' Reynolds stress


Spatial Coherence Models:

       IEC  u-component coherence model
       IEC  v-component coherence model
       IEC  w-component coherence model
(   12.000, 0.659E-03)  u-component coherence parameters
(   12.000, 0.659E-03)  v-component coherence parameters
(   12.000, 0.659E-03)  w-component coherence parameters
       N/A  Coherence exponent


You have requested that the following file(s) be generated:

   ./TurbulentWind_20WT/FOWTs/Wind\InflowWind_High_WT16.bts (AeroDyn/TurbSim full-field wind file)


Turbulence Simulation Scaling Parameter Summary:

   Turbulence model used                            =  IEC von Karman
   Turbulence characteristic                        =  User-specified
   IEC standard                                     =  IEC 61400-1 Ed. 2: 1999
   Mean wind speed at hub height                    =   10.007 m/s
   Characteristic value of standard deviation       =    1.001 m/s
   Turbulence scale                                 =   21.000 m
   Isotropic integral scale                         =   73.500 m
   Characteristic value of hub turbulence intensity =   10.000%
   Gradient Richardson number                       =    0.000

   Wind profile type                                =  Power law
   Power law exponent                               =    0.100
   Mean shear across rotor disk                     =    0.016 (m/s)/m
   Assumed rotor diameter                           =  300.000 m
   Surface roughness length                         =    0.030 m

   Nyquist frequency of turbulent wind field        =    5.000 Hz

   Number of time steps in the FFT                  =     2600
   Number of time steps output                      =     2600
   Number of points simulated                       =     1271


Mean Flow Angles:

   Vertical   =   0.0 degrees
   Horizontal =   0.0 degrees

Mean Wind Speed Profile:

   Height    Wind Speed   Horizontal Angle  Vertical Angle  U-comp (X)   V-comp (Y)   W-comp (Z)
     (m)        (m/s)         (degrees)       (degrees)       (m/s)        (m/s)        (m/s)   
   ------    ----------   ----------------  --------------  ----------   ----------   ----------
    301.0       10.72            0.00            0.00         10.72         0.00         0.00
    291.0       10.69            0.00            0.00         10.69         0.00         0.00
    281.0       10.65            0.00            0.00         10.65         0.00         0.00
    271.0       10.61            0.00            0.00         10.61         0.00         0.00
    261.0       10.57            0.00            0.00         10.57         0.00         0.00
    251.0       10.53            0.00            0.00         10.53         0.00         0.00
    241.0       10.49            0.00            0.00         10.49         0.00         0.00
    231.0       10.44            0.00            0.00         10.44         0.00         0.00
    221.0       10.40            0.00            0.00         10.40         0.00         0.00
    211.0       10.35            0.00            0.00         10.35         0.00         0.00
    201.0       10.30            0.00            0.00         10.30         0.00         0.00
    191.0       10.24            0.00            0.00         10.24         0.00         0.00
    181.0       10.19            0.00            0.00         10.19         0.00         0.00
    171.0       10.13            0.00            0.00         10.13         0.00         0.00
    161.0       10.07            0.00            0.00         10.07         0.00         0.00
    151.0       10.01            0.00            0.00         10.01         0.00         0.00
    141.0        9.94            0.00            0.00          9.94         0.00         0.00
    131.0        9.87            0.00            0.00          9.87         0.00         0.00
    121.0        9.79            0.00            0.00          9.79         0.00         0.00
    111.0        9.70            0.00            0.00          9.70         0.00         0.00
    101.0        9.61            0.00            0.00          9.61         0.00         0.00
     91.0        9.51            0.00            0.00          9.51         0.00         0.00
     81.0        9.40            0.00            0.00          9.40         0.00         0.00
     71.0        9.28            0.00            0.00          9.28         0.00         0.00
     61.0        9.14            0.00            0.00          9.14         0.00         0.00
     51.0        8.98            0.00            0.00          8.98         0.00         0.00
     41.0        8.78            0.00            0.00          8.78         0.00         0.00
     31.0        8.54            0.00            0.00          8.54         0.00         0.00
     21.0        8.22            0.00            0.00          8.22         0.00         0.00
     11.0        7.70            0.00            0.00          7.70         0.00         0.00
      1.0        6.06            0.00            0.00          6.06         0.00         0.00


Harvested Random Seeds after Generation of the Random Numbers:

   1884498794 Harvested seed # 1
   1971657505 Harvested seed # 2


Hub-Height Simulated Turbulence Statistical Summary:

   Type of Wind        Min (m/s)   Mean (m/s)    Max (m/s)  Sigma (m/s)       TI (%)
   ----------------    ---------   ----------    ---------  -----------       ------
   Longitudinal (u)         6.25        10.01        12.57        1.110       11.097
   Lateral (v)             -3.12        -0.00         3.16        1.043       10.419
   Vertical (w)            -3.02        -0.00         2.75        0.988        9.874
   U component              6.25        10.01        12.57        1.110       11.097
   V component             -3.12        -0.00         3.16        1.043       10.419
   W component             -3.02        -0.00         2.75        0.988        9.874
   Horizontal (U&V)         6.43        10.06        12.58        1.107       11.001
   Total                    6.44        10.11        12.72        1.097       10.847

                       Min Reynolds     Mean Reynolds    Max Reynolds    Correlation
   Product             Stress (m/s)^2   Stress (m/s)^2   Stress (m/s)^2  Coefficient
   ----------------    --------------   --------------   --------------  -----------
   u'w'                     -5.510             0.075             8.299         0.068
   u'v'                     -3.540             0.185             8.204         0.159
   v'w'                     -4.625             0.014             5.292         0.013


   Friction Velocity (Ustar)  =      0.274 m/s
   Maximum Instantaneous TKE  =      9.304 (m/s)^2
   Maximum Instantaneous CTKE =      4.228 (m/s)^2


Grid Point Variance Summary:

   Y-coord -300.00 -285.00 -270.00 -255.00 -240.00 -225.00 -210.00 -195.00 -180.00 -165.00 -150.00 -135.00 -120.00 -105.00  -90.00  -75.00  -60.00  -45.00  -30.00  -15.00    0.00   15.00   30.00   45.00   60.00   75.00   90.00  105.00  120.00  135.00  150.00  165.00  180.00  195.00  210.00  225.00  240.00  255.00  270.00  285.00  300.00

   Height   Standard deviation at grid points for the u component:
   301.00    1.057   0.882   0.903   0.958   0.999   1.015   1.031   1.002   0.892   0.979   1.049   1.015   1.098   1.160   1.206   1.213   1.112   0.955   1.094   0.900   0.758   0.803   0.905   0.992   0.939   0.906   0.781   0.813   0.887   0.789   0.918   0.977   0.983   1.111   1.227   1.152   0.982   0.898   0.872   0.827   0.895
   291.00    1.053   1.036   0.976   0.932   1.012   0.978   0.882   0.951   1.042   1.025   0.951   0.967   0.963   1.141   1.121   1.137   1.074   0.949   1.035   0.972   0.926   0.773   0.817   1.042   1.028   0.901   0.785   0.815   0.793   0.822   0.841   0.940   1.047   1.015   1.130   1.012   0.962   0.946   0.782   0.828   0.865
   281.00    1.043   0.959   1.048   1.063   1.123   0.843   0.961   1.069   0.999   1.130   1.027   1.078   1.045   1.038   1.033   1.051   1.088   0.913   0.866   1.017   0.833   0.771   0.804   0.928   1.002   0.871   0.821   0.904   0.794   0.757   0.819   0.851   1.010   0.935   0.984   1.006   0.856   0.926   0.779   0.813   0.877
   271.00    0.944   1.026   1.025   1.134   1.129   1.004   1.016   1.022   1.067   1.128   1.023   1.068   1.140   1.121   1.107   1.083   1.000   0.988   0.933   0.941   0.941   0.923   0.991   0.952   0.931   0.773   0.812   0.889   0.797   0.777   0.851   0.984   1.092   1.039   0.930   0.963   0.997   0.837   0.821   0.805   0.906
   261.00    0.926   1.081   1.086   1.191   1.153   1.034   1.036   0.979   1.013   1.018   0.955   1.026   1.062   1.117   1.060   1.068   0.998   0.964   1.047   1.006   0.985   0.871   1.017   1.006   0.908   0.941   0.789   0.813   0.835   0.863   0.912   0.965   1.149   1.052   0.949   1.013   0.952   0.808   0.821   0.793   0.899
   251.00    1.040   1.038   1.002   1.084   1.093   1.039   1.031   0.919   0.946   1.007   0.917   1.027   1.083   0.976   1.071   1.046   1.067   0.952   1.001   0.896   1.003   0.841   0.898   0.960   0.856   0.981   0.879   0.822   0.859   0.875   0.963   1.047   1.036   1.046   1.003   0.941   0.870   0.784   0.846   0.884   0.832
   241.00    0.980   1.043   1.044   1.118   1.033   0.916   0.880   0.846   0.892   0.815   0.892   0.964   0.975   1.060   1.125   1.030   1.059   0.945   0.978   1.015   1.007   0.945   0.861   0.937   0.881   0.917   0.942   0.855   0.802   0.860   0.997   1.013   1.051   1.184   1.220   0.969   0.855   0.806   0.833   0.923   0.985
   231.00    0.956   1.144   1.233   1.216   1.021   0.873   0.842   0.820   0.910   0.835   0.909   0.891   0.932   0.925   1.091   1.177   0.968   1.023   0.947   0.922   1.047   0.943   0.838   0.876   0.822   0.866   1.021   0.987   0.836   0.816   0.879   1.044   1.086   1.181   1.132   0.982   0.957   0.867   0.955   0.975   1.042
   221.00    1.014   1.087   1.315   1.246   0.987   0.929   0.913   0.871   0.898   0.914   0.934   0.971   0.937   1.033   1.015   1.106   1.064   0.950   0.855   1.050   1.036   0.865   0.849   0.833   0.880   0.871   0.877   0.898   0.860   0.896   0.959   1.006   1.025   1.167   1.203   1.095   1.040   0.969   0.961   1.010   1.015
   211.00    1.093   1.131   1.111   1.228   1.053   0.943   0.950   0.978   0.891   0.826   0.949   1.032   1.108   1.123   1.009   1.031   1.163   1.002   1.014   1.073   1.063   0.964   0.867   0.839   0.718   1.003   0.876   0.824   0.842   0.910   1.023   1.064   1.034   1.055   1.166   1.204   1.075   1.070   1.120   1.082   1.055
   201.00    1.023   1.088   1.104   1.037   1.033   1.044   1.019   0.981   0.921   0.837   0.947   1.032   1.167   1.032   0.941   1.083   0.949   0.962   1.004   1.057   1.223   1.151   0.968   0.841   0.869   1.029   0.870   0.837   0.873   0.889   0.900   0.978   1.127   1.174   1.095   1.143   1.110   1.230   1.094   1.107   0.916
   191.00    1.114   1.069   1.123   1.011   0.884   0.960   1.003   0.973   0.930   0.861   0.889   0.978   1.086   1.131   0.998   0.974   1.031   0.939   1.035   1.088   1.091   1.098   1.121   0.935   0.701   0.896   0.912   0.829   0.890   0.859   0.928   0.906   0.990   1.139   1.192   1.140   1.163   1.304   1.141   1.079   1.005
   181.00    1.084   1.094   0.973   0.947   0.860   1.045   0.971   0.965   0.855   0.821   0.879   0.990   1.073   1.189   1.108   1.001   1.040   0.917   0.956   1.038   1.067   1.047   1.136   1.023   0.887   0.783   0.889   0.973   0.871   0.888   0.919   0.944   0.992   1.236   1.183   1.043   1.153   1.193   1.103   1.116   1.061
   171.00    1.000   1.049   0.950   0.973   1.012   0.970   0.949   0.856   0.868   0.817   0.913   0.951   1.011   1.171   1.085   1.011   0.968   0.876   1.070   0.948   1.068   1.110   1.115   1.079   0.867   0.864   0.853   0.864   0.943   0.901   1.046   1.032   1.081   1.217   1.199   1.057   1.189   1.114   1.143   1.159   1.074
   161.00    0.957   0.914   0.981   0.972   0.954   1.025   1.108   0.910   0.757   0.890   1.018   0.810   1.010   1.096   1.108   1.106   0.960   0.958   1.032   0.967   1.117   1.108   1.033   1.038   0.902   0.920   1.028   0.852   0.955   1.055   0.998   1.004   1.049   1.026   1.051   1.102   1.014   1.027   1.203   1.141   1.028
   151.00    0.998   0.845   0.925   1.003   0.932   0.970   1.021   1.022   0.959   0.797   1.021   1.053   1.081   1.107   0.995   1.048   1.112   0.903   0.928   0.947   1.110   1.001   0.995   1.029   0.914   0.996   1.170   0.976   0.882   0.951   0.893   1.022   1.019   1.017   0.974   0.975   0.996   1.007   1.142   1.138   1.040
   141.00    0.888   0.820   0.839   0.840   1.005   0.912   0.868   0.973   1.044   0.953   1.048   1.007   0.932   0.916   0.889   0.964   1.050   0.953   0.829   1.017   1.029   1.009   0.892   0.972   0.893   1.056   0.969   1.044   0.939   0.876   0.888   1.056   1.008   0.971   1.024   0.969   0.978   0.890   1.052   1.003   0.983
   131.00    0.830   0.859   0.836   0.845   0.866   0.920   0.901   0.989   0.983   0.864   0.911   0.897   0.916   0.901   0.974   0.893   0.978   0.974   0.994   0.996   1.006   0.924   0.898   0.974   0.950   0.980   1.065   1.072   1.036   0.943   0.965   0.991   1.081   1.065   1.043   0.945   1.012   1.009   0.937   1.001   0.888
   121.00    0.795   0.882   0.962   0.887   0.841   0.908   0.849   0.843   0.908   0.843   0.841   0.911   0.929   0.909   1.051   0.959   0.930   0.916   0.886   0.870   0.897   0.925   1.021   0.884   0.991   0.933   0.941   0.900   0.865   0.969   1.089   1.040   1.018   0.959   0.969   0.971   0.950   0.890   0.937   1.020   0.985
   111.00    0.814   0.955   0.964   0.991   0.808   0.889   0.877   0.755   0.842   0.789   0.809   0.956   1.018   0.922   0.955   1.031   0.940   1.032   0.912   0.727   0.801   0.836   0.956   0.886   0.959   0.878   0.887   0.878   0.823   1.044   1.155   1.143   1.045   1.100   0.917   0.917   0.950   0.830   0.819   0.938   0.931
   101.00    0.846   1.005   1.035   0.874   0.795   0.906   0.816   0.884   0.787   0.777   0.815   0.946   0.933   0.911   0.911   0.962   0.871   0.885   0.878   0.803   0.828   0.905   0.953   0.790   0.887   0.871   0.892   0.928   0.969   0.971   1.097   1.194   1.021   0.971   0.950   0.984   0.864   0.747   0.919   0.962   1.029
    91.00    0.803   0.903   0.945   0.820   0.915   0.808   0.789   0.840   0.816   0.819   0.848   0.883   0.862   0.868   0.921   0.883   0.864   0.831   0.811   0.807   0.818   0.915   0.912   0.821   0.907   0.880   0.942   0.888   1.052   0.901   0.992   1.059   0.976   0.961   0.968   0.969   0.843   0.770   0.898   0.936   0.999
    81.00    0.793   0.889   0.922   0.836   0.902   0.913   0.857   0.797   0.848   0.789   0.824   0.905   0.863   0.780   0.948   0.969   0.899   0.809   0.827   0.788   0.839   0.973   0.958   0.824   0.899   0.981   0.945   0.949   0.917   0.941   0.911   0.925   0.928   1.014   0.750   0.947   0.881   0.921   0.945   0.999   1.014
    71.00    0.900   0.876   0.973   0.832   0.961   0.998   0.968   0.857   0.829   0.773   0.849   0.916   0.934   0.898   0.960   1.049   1.005   0.867   0.890   0.816   0.839   1.068   1.096   0.944   0.995   1.018   0.921   0.869   0.883   0.861   0.861   0.919   0.905   0.991   0.817   0.932   1.052   1.002   0.979   1.141   0.987
    61.00    0.918   0.871   1.036   0.887   1.025   1.014   0.897   0.821   0.815   0.858   0.952   0.778   0.914   0.843   0.884   1.002   1.047   0.869   0.902   1.013   0.843   0.960   1.054   0.928   0.894   1.000   1.000   0.796   0.914   0.866   0.940   0.912   0.854   0.865   0.829   0.837   0.912   0.904   0.960   1.031   0.927
    51.00    0.896   0.868   0.978   1.066   0.993   0.964   0.998   0.823   0.832   0.897   0.908   0.846   0.938   0.972   0.937   0.921   1.010   0.912   0.930   0.909   0.783   0.917   0.996   0.899   0.930   0.944   0.879   0.722   0.843   0.910   0.983   0.932   0.858   0.763   0.851   0.856   0.874   0.955   0.966   1.024   1.116
    41.00    0.932   0.952   1.124   0.990   0.907   1.058   1.059   0.872   0.788   0.776   0.873   0.967   0.839   0.918   0.993   1.062   0.972   0.898   1.060   0.904   0.888   0.906   0.858   0.959   0.994   0.850   0.849   0.762   0.842   0.801   0.824   0.937   0.938   0.832   0.847   0.864   0.837   0.886   1.053   1.051   0.991
    31.00    0.934   1.063   1.074   1.068   0.971   1.092   1.016   0.984   0.822   0.916   0.889   0.873   0.846   0.875   0.931   0.995   0.904   0.920   1.048   0.944   0.868   0.738   0.839   0.877   0.978   0.858   0.822   0.769   0.841   0.853   0.783   0.918   1.022   0.899   0.769   0.746   0.892   0.945   1.006   1.122   1.097
    21.00    0.927   0.982   1.029   1.046   1.076   1.069   1.059   0.994   0.914   0.967   0.867   0.845   0.808   0.886   0.837   0.952   0.962   0.977   1.036   0.955   0.881   0.915   0.905   0.967   1.008   0.972   0.865   0.848   0.823   0.849   0.863   0.932   0.943   0.999   0.762   0.795   0.890   0.883   0.993   0.965   1.220
    11.00    0.852   0.928   0.989   0.957   1.025   1.054   1.047   1.000   0.986   0.937   0.866   0.839   0.843   0.847   0.935   0.953   0.920   1.032   1.023   0.931   1.010   0.907   0.960   0.933   1.024   0.953   0.915   0.894   0.876   0.883   0.755   0.803   0.873   0.824   0.786   0.812   0.788   0.937   0.958   1.053   1.196
     1.00    0.963   0.959   0.985   1.005   0.955   1.006   1.103   1.042   1.005   0.988   0.976   0.970   0.904   0.819   0.945   0.908   0.870   0.919   0.966   0.889   0.969   0.803   0.919   0.904   0.952   0.873   0.921   0.893   0.854   0.874   0.866   0.877   0.828   0.842   0.901   0.881   0.825   0.831   0.909   1.004   1.106

   Height   Standard deviation at grid points for the v component:
   301.00    0.933   1.144   0.994   0.923   1.077   1.007   1.107   1.158   1.012   1.112   1.053   0.921   0.940   0.999   0.996   1.073   0.994   1.056   0.974   0.820   0.948   0.967   1.158   0.949   0.847   0.809   0.816   0.923   0.957   1.002   1.097   1.012   0.903   0.999   0.972   0.972   0.878   0.982   0.904   0.925   0.932
   291.00    1.018   1.071   0.919   0.928   1.061   0.977   1.057   1.022   1.062   0.992   0.991   0.942   0.937   0.963   1.068   0.948   0.892   0.960   0.894   0.838   0.868   1.012   1.086   1.128   0.972   0.890   0.895   0.836   0.942   1.003   1.002   0.992   0.919   0.899   0.920   0.883   0.872   0.899   0.951   0.877   1.013
   281.00    1.034   1.014   0.958   0.978   0.991   1.156   1.136   1.092   1.087   1.028   0.976   0.913   0.956   0.951   0.990   0.957   1.004   0.993   0.975   0.897   0.896   1.010   1.104   1.044   0.946   0.931   0.875   0.855   0.914   0.966   0.983   0.956   0.856   0.946   0.835   0.850   0.915   0.860   1.008   0.980   0.893
   271.00    1.079   1.002   0.887   0.894   1.028   1.083   1.164   1.137   1.042   1.043   1.069   1.027   0.956   1.012   0.953   0.923   0.941   0.931   0.960   0.908   0.855   0.958   1.035   0.981   0.832   0.876   0.880   0.837   0.857   0.793   0.904   0.943   0.916   0.927   0.896   0.918   1.050   0.914   1.017   1.077   0.987
   261.00    1.047   0.942   0.866   0.945   0.947   1.001   1.056   1.182   1.140   1.056   1.005   0.943   0.973   1.008   0.984   0.973   0.930   0.857   0.940   0.924   0.920   0.983   1.004   1.018   0.911   0.858   0.850   0.765   0.864   0.913   0.861   0.838   0.819   0.988   1.019   1.010   0.997   0.944   1.083   1.098   1.083
   251.00    0.966   0.867   0.844   0.864   0.933   1.036   1.021   1.107   1.154   1.119   0.975   1.061   0.969   0.928   1.085   1.028   0.970   0.856   0.959   0.922   0.854   0.977   1.024   0.941   0.985   0.985   0.808   0.824   0.880   0.950   0.895   0.903   0.878   1.028   1.032   1.068   1.139   1.112   1.105   1.086   1.022
   241.00    0.824   0.842   0.807   0.857   0.978   0.938   1.075   1.107   1.122   1.104   0.934   1.012   0.976   1.011   0.937   0.924   0.943   0.948   0.973   0.945   0.892   0.926   0.993   1.014   0.967   1.048   0.792   0.886   0.850   0.864   0.802   0.856   0.960   1.065   1.039   1.099   1.155   1.148   1.182   0.989   1.053
   231.00    0.923   0.898   0.886   0.962   0.948   0.892   1.014   0.979   1.107   1.080   0.962   0.949   0.941   0.964   0.999   0.959   0.979   0.959   0.936   0.965   0.924   0.935   0.981   1.023   1.004   1.040   0.866   0.784   0.820   0.919   0.851   0.889   0.937   0.981   1.015   1.055   1.064   1.173   1.121   0.944   0.956
   221.00    1.015   1.000   0.960   0.918   0.954   0.945   0.977   1.052   1.104   1.112   0.984   0.906   0.895   0.909   0.946   1.015   0.971   0.940   0.990   0.951   0.994   0.918   0.936   0.977   1.061   1.109   0.879   0.728   0.811   0.966   0.990   0.816   0.856   0.973   0.997   1.078   1.034   1.187   1.084   1.025   0.962
   211.00    1.030   1.000   0.969   0.923   0.837   0.789   0.951   1.064   1.074   1.120   0.967   0.985   0.927   0.968   0.902   1.020   0.995   0.933   1.047   0.987   0.918   0.950   1.005   1.045   0.984   0.994   0.955   0.829   0.770   0.871   0.913   0.897   0.910   0.921   1.030   1.133   1.115   1.043   1.074   0.984   0.946
   201.00    1.118   1.014   1.033   0.935   0.827   0.865   0.959   1.098   1.079   1.120   1.034   1.013   1.117   0.972   1.003   1.014   1.027   1.043   0.970   1.003   0.958   1.003   0.937   1.011   0.934   0.909   0.903   0.962   0.818   0.855   0.865   0.872   0.914   0.826   1.100   1.156   1.058   0.994   0.992   0.951   0.854
   191.00    1.070   1.047   0.990   0.926   0.903   0.900   0.937   1.018   1.211   1.030   1.025   1.039   1.092   0.940   1.067   0.991   1.002   0.964   0.963   0.918   0.936   0.914   0.994   0.969   0.913   0.880   0.918   0.876   0.887   0.868   0.864   0.856   0.874   0.967   1.104   1.076   1.095   0.934   0.931   0.942   0.898
   181.00    1.031   1.099   1.081   0.864   0.931   0.941   0.893   1.019   1.147   1.088   1.030   0.970   0.976   0.947   1.061   1.031   1.002   0.899   0.989   0.991   0.949   0.942   0.960   0.982   0.935   0.877   0.882   0.917   0.945   0.896   0.885   0.839   0.933   0.985   1.036   0.980   0.984   0.964   0.892   0.960   0.925
   171.00    1.085   1.062   0.970   0.917   0.913   1.044   0.957   1.005   1.100   1.010   0.946   1.013   1.017   0.989   1.007   1.171   0.965   0.924   1.040   1.061   1.015   1.069   1.020   0.952   0.932   0.854   0.971   0.994   0.926   0.930   0.907   0.831   0.943   1.062   0.959   0.912   0.912   0.932   0.890   0.888   0.951
   161.00    1.022   0.965   1.063   0.961   0.912   0.953   0.935   0.970   1.034   0.973   0.995   0.994   0.881   0.980   1.032   1.143   1.022   0.924   1.055   0.976   0.970   0.972   1.062   0.926   0.926   0.976   1.056   0.958   0.983   0.923   0.864   1.065   0.967   0.917   0.964   0.838   0.824   0.881   0.839   0.841   0.935
   151.00    1.007   0.953   0.953   1.001   0.896   0.893   0.863   0.876   0.910   0.935   0.968   0.865   0.875   0.905   1.038   1.046   0.975   0.926   0.944   1.056   1.043   1.051   0.975   0.948   0.958   0.969   1.038   0.942   0.998   0.971   0.946   1.066   1.053   0.967   0.857   0.929   0.886   0.889   0.881   1.015   0.959
   141.00    0.987   0.900   0.889   0.933   0.952   0.845   0.894   0.876   0.927   0.923   0.872   0.844   0.835   0.986   0.997   1.011   1.013   0.911   1.039   1.017   1.092   1.023   0.964   0.976   0.961   0.944   0.987   0.979   0.984   0.945   0.905   0.971   1.016   1.037   0.853   0.955   0.983   0.965   0.949   1.008   0.945
   131.00    0.938   0.930   0.964   0.940   0.953   0.955   0.917   0.884   0.930   0.878   0.908   0.830   0.769   0.909   1.007   1.030   0.973   0.903   0.989   1.038   1.009   1.063   0.994   0.957   0.972   0.956   0.996   0.904   0.930   0.966   0.920   0.929   1.002   0.905   0.832   0.864   0.971   1.027   1.073   0.932   0.935
   121.00    0.957   1.000   0.865   0.920   0.927   0.915   0.895   0.858   0.880   0.888   0.879   0.903   0.835   0.975   1.056   0.977   0.973   1.033   0.927   0.997   1.034   1.023   1.058   0.924   0.845   0.944   0.944   0.999   0.894   0.885   0.964   0.920   0.923   0.909   0.862   0.990   1.080   1.067   0.999   1.006   0.959
   111.00    1.037   0.903   0.951   0.916   0.947   0.884   0.856   0.906   0.868   0.887   0.880   0.928   0.916   1.022   1.173   1.049   0.937   1.065   1.072   1.102   1.118   1.017   1.063   1.072   0.937   0.955   1.044   0.933   0.856   1.013   0.970   0.944   0.899   0.872   0.906   0.987   0.999   1.051   0.946   1.001   0.934
   101.00    1.077   0.974   0.949   0.925   0.914   0.951   0.896   0.839   0.819   0.985   0.900   0.895   0.919   0.973   1.042   1.098   1.041   1.154   1.096   1.035   1.046   1.065   1.096   1.123   0.903   0.922   1.022   1.016   0.918   0.865   0.910   0.873   0.944   0.864   0.948   0.929   1.016   1.044   0.974   0.994   1.001
    91.00    1.060   0.982   0.994   0.899   0.943   0.931   0.810   0.879   0.954   0.855   0.980   0.977   0.952   0.973   1.041   1.035   1.161   1.098   1.088   1.007   1.071   1.153   1.107   1.043   0.950   0.900   0.877   0.884   0.938   0.805   0.853   0.920   0.914   0.923   0.918   0.942   1.047   1.019   0.895   0.888   0.952
    81.00    0.988   1.018   0.911   0.950   0.948   0.933   0.859   0.849   0.863   0.967   0.837   0.941   1.016   1.019   0.993   1.030   0.980   1.157   1.053   1.077   1.153   1.027   1.091   1.099   1.048   1.003   1.043   0.892   0.928   0.872   0.955   0.954   0.848   0.895   0.815   0.881   0.921   0.892   0.955   0.937   0.916
    71.00    0.981   0.999   0.837   0.888   0.824   0.930   0.956   0.971   0.860   0.975   0.968   0.957   0.942   1.004   1.035   1.043   1.021   1.084   1.078   1.041   1.060   1.038   1.095   1.052   1.006   1.008   1.001   0.977   0.918   0.994   1.000   1.042   1.009   0.875   0.883   0.812   0.885   0.930   0.960   0.888   0.984
    61.00    0.992   0.992   0.945   0.923   0.865   0.909   0.869   0.933   0.839   0.918   0.848   0.879   0.905   0.901   1.019   1.036   0.980   1.068   1.077   1.079   1.073   0.982   0.968   0.999   0.979   1.012   1.045   0.925   0.887   0.995   1.033   1.117   1.155   0.970   0.852   0.861   0.941   0.901   1.012   1.067   0.983
    51.00    0.921   0.946   0.949   0.877   0.871   0.921   1.006   0.941   0.911   1.004   0.928   0.814   0.880   0.936   0.910   0.914   0.932   0.921   0.957   1.064   0.952   0.914   0.971   1.046   0.959   1.008   0.955   0.835   0.854   0.947   1.000   1.089   1.171   1.094   0.795   0.899   0.922   0.978   0.954   1.090   1.052
    41.00    0.947   0.931   0.861   0.896   0.980   0.967   1.012   0.958   0.846   0.982   0.835   0.811   0.909   0.969   0.908   0.938   0.950   0.869   0.904   1.018   0.880   0.906   0.927   0.969   0.927   0.902   0.961   0.982   0.972   0.918   0.900   1.009   1.058   1.048   0.983   0.962   0.945   0.968   0.987   1.045   1.074
    31.00    1.000   0.905   0.876   0.935   0.957   0.913   0.979   0.997   0.914   0.936   0.892   0.768   0.959   0.939   0.960   0.996   0.919   0.814   0.858   0.985   0.878   1.043   0.922   0.929   0.845   0.874   0.961   0.878   0.963   0.872   0.960   0.848   0.929   0.943   0.960   0.927   0.998   0.990   0.968   1.082   1.117
    21.00    0.964   0.968   0.953   0.882   0.826   0.882   0.954   0.965   0.917   0.953   0.922   0.928   0.885   0.955   1.021   0.925   0.959   0.826   0.864   0.912   0.932   1.033   0.924   1.011   0.924   0.944   0.953   1.019   0.920   0.914   0.952   0.973   0.912   0.943   0.871   0.904   0.882   0.957   0.970   1.064   1.096
    11.00    0.936   0.936   0.888   0.955   0.893   0.918   0.901   0.931   0.943   0.883   0.958   0.923   0.934   0.899   1.005   0.922   0.933   0.930   0.855   0.977   0.959   1.056   1.053   1.029   0.976   0.884   0.926   0.958   0.959   0.952   1.042   0.885   0.906   0.785   0.949   0.963   0.853   0.992   0.925   1.046   1.068
     1.00    0.974   0.932   0.949   0.852   0.947   1.017   0.847   0.854   0.913   0.883   0.906   0.924   0.893   0.855   0.934   0.882   0.960   0.979   0.869   0.944   0.963   1.025   1.011   1.004   1.016   0.905   0.960   0.985   0.939   0.953   0.892   0.913   0.911   0.883   1.016   0.920   0.839   0.938   0.926   0.969   1.074

   Height   Standard deviation at grid points for the w component:
   301.00    1.073   0.979   0.938   1.072   1.113   1.089   0.983   1.034   0.882   1.047   1.004   0.824   0.936   0.949   0.950   1.006   0.964   0.938   0.855   0.887   0.816   0.861   0.900   0.855   0.874   0.937   0.992   0.911   0.891   0.978   1.000   0.937   0.998   0.991   0.867   0.851   0.923   0.951   0.915   0.861   0.993
   291.00    1.039   0.926   0.937   0.988   1.051   1.044   0.906   1.004   0.959   1.012   0.855   0.933   0.988   0.921   1.115   1.031   0.893   0.883   0.946   0.834   0.904   1.002   0.832   0.892   0.849   0.908   0.867   0.933   0.984   0.961   1.003   1.008   1.069   0.942   0.832   0.884   0.922   0.934   1.005   0.894   0.867
   281.00    1.099   0.970   0.975   0.912   0.896   1.026   1.023   0.927   0.992   0.960   0.944   0.949   0.972   0.995   1.117   1.178   1.043   0.923   0.998   0.903   0.958   1.002   0.887   0.826   0.912   0.867   0.880   0.965   1.006   1.035   1.030   1.038   1.061   0.966   0.818   0.815   0.892   0.957   0.981   1.009   0.878
   271.00    1.044   1.052   0.914   0.888   0.851   0.984   0.971   0.872   0.974   1.018   0.991   1.058   1.013   0.907   1.012   1.142   1.105   1.059   0.932   0.896   1.010   1.015   0.982   0.867   0.942   0.914   0.950   1.009   0.975   0.916   0.990   0.925   0.955   1.038   0.959   0.899   0.977   0.967   0.954   1.044   1.024
   261.00    1.059   1.071   0.924   0.853   0.953   1.112   1.062   0.911   0.985   0.998   1.058   1.064   0.947   0.939   0.974   1.025   1.156   1.036   0.896   0.857   0.927   0.909   0.987   0.854   0.863   0.917   0.946   0.976   1.014   1.079   0.886   1.038   0.954   0.963   0.914   1.011   0.971   1.020   1.060   1.040   0.968
   251.00    1.031   0.977   0.994   0.862   0.944   0.965   1.008   0.881   1.054   1.002   0.991   0.964   0.924   0.953   0.994   1.006   1.094   1.025   0.980   0.942   0.941   0.966   0.974   0.820   0.889   0.837   0.883   0.927   0.977   1.049   0.953   0.900   0.991   1.003   0.902   0.955   0.942   1.084   0.976   1.064   0.937
   241.00    0.940   0.983   0.975   0.856   0.910   0.939   0.982   0.913   1.003   1.067   1.066   0.864   0.958   0.945   0.964   0.998   0.970   1.010   0.930   0.957   0.926   0.939   0.935   0.845   0.872   0.905   1.003   0.961   0.883   0.910   0.862   0.868   0.967   0.917   0.987   0.967   1.009   1.186   1.095   0.952   1.010
   231.00    0.930   0.994   0.968   0.923   1.015   0.964   0.812   0.946   0.997   0.977   1.064   0.887   0.808   0.980   0.971   1.026   0.949   0.964   0.912   0.946   0.967   1.047   1.039   0.993   0.879   0.857   0.970   0.923   0.907   0.915   0.788   0.933   0.958   0.916   0.967   0.870   0.948   1.096   1.232   1.064   1.001
   221.00    0.935   0.936   0.899   0.936   0.953   0.919   0.946   0.969   0.913   0.962   0.977   0.834   0.835   0.923   0.963   1.002   0.939   0.871   0.849   0.943   1.045   0.994   1.055   0.985   0.880   0.897   0.965   0.880   0.984   0.940   0.860   0.875   0.922   1.042   0.933   0.995   0.883   1.010   1.288   1.097   1.041
   211.00    1.030   0.880   0.926   1.025   0.782   0.980   0.885   0.910   0.974   1.007   0.989   0.948   0.900   0.906   0.933   0.962   0.973   0.953   0.902   0.932   1.000   0.971   0.964   0.917   0.856   0.904   1.021   0.895   0.935   0.854   0.872   0.826   0.975   1.000   1.009   1.009   1.032   1.168   1.258   1.145   1.011
   201.00    0.970   0.931   1.027   0.977   0.964   1.004   0.898   0.957   0.984   1.027   1.037   0.938   0.890   0.816   0.855   0.888   1.001   0.974   1.027   0.932   0.900   0.941   0.952   0.834   0.936   0.933   1.012   0.864   0.955   0.958   0.991   0.898   0.865   0.948   1.087   0.994   1.017   1.190   1.258   1.202   1.057
   191.00    0.978   1.034   0.947   1.011   1.045   0.945   0.953   1.005   0.980   1.119   1.057   1.035   0.932   0.976   0.985   0.987   0.977   0.964   0.920   0.877   0.859   0.945   1.013   0.954   0.935   0.953   0.905   0.902   1.032   0.916   0.860   0.836   0.715   0.918   1.013   0.966   1.017   1.216   1.197   1.040   1.032
   181.00    0.969   1.054   1.017   0.980   1.106   1.005   1.014   1.018   1.034   1.106   1.129   1.068   1.036   0.932   0.957   1.041   0.980   0.938   0.967   0.905   0.913   0.889   1.039   0.932   0.963   0.918   0.893   0.956   0.999   0.894   0.799   0.789   0.842   0.931   1.017   1.003   1.134   1.226   1.081   1.042   1.016
   171.00    1.008   1.111   1.060   1.065   1.054   1.076   0.928   0.984   1.014   0.902   1.036   1.096   1.006   0.950   0.944   1.002   0.971   1.005   0.927   0.847   0.979   1.073   1.061   0.962   0.923   0.877   0.907   0.934   0.934   0.896   0.940   0.740   0.921   0.886   0.983   0.921   1.140   1.047   1.154   1.048   1.054
   161.00    1.071   1.094   1.151   1.159   1.191   1.126   1.100   1.001   1.085   0.878   0.900   1.032   1.080   1.031   0.891   1.044   0.974   0.875   0.879   0.822   0.996   1.150   1.014   0.939   0.880   0.890   0.977   0.979   0.952   0.981   0.874   0.891   0.891   0.912   1.046   0.970   1.079   1.068   1.122   1.070   1.117
   151.00    1.020   1.052   1.121   1.220   1.193   1.095   0.982   1.075   0.999   0.977   1.059   1.052   0.991   1.045   1.004   1.087   0.967   0.910   0.797   1.000   0.988   1.053   0.990   0.912   0.823   0.815   0.987   0.974   1.018   0.970   0.866   0.939   0.941   0.968   1.041   1.052   1.114   1.154   1.096   1.071   1.076
   141.00    1.021   1.059   1.101   1.230   1.043   1.043   0.962   0.924   1.036   1.034   1.062   1.116   1.034   1.088   1.031   1.032   0.969   0.934   0.863   0.917   0.913   1.025   0.856   0.866   0.889   0.906   0.945   1.121   1.109   1.010   1.024   0.932   1.002   1.003   1.073   1.023   1.059   1.141   1.089   1.101   0.962
   131.00    1.066   1.082   1.231   1.198   1.276   1.022   0.900   0.794   0.926   1.038   1.086   1.138   1.077   1.145   0.982   1.051   0.992   0.882   0.751   0.836   0.914   0.879   0.848   0.747   0.957   0.829   0.968   1.072   1.231   1.081   1.019   1.001   1.021   1.082   1.080   0.979   0.953   1.074   1.024   1.030   1.032
   121.00    1.014   1.090   1.199   1.164   1.145   1.135   0.886   0.833   0.986   1.050   0.996   1.041   1.134   1.145   1.004   1.004   0.978   0.902   0.925   0.852   0.923   0.781   0.836   0.886   0.956   1.000   1.057   0.987   1.138   1.128   0.906   0.976   0.950   0.971   1.013   0.982   0.965   1.010   1.036   0.972   0.978
   111.00    1.060   1.071   1.148   1.169   1.134   1.064   0.912   0.933   0.980   0.982   0.937   1.005   1.064   1.062   1.015   0.935   0.899   0.933   0.879   0.892   0.941   0.967   0.945   0.882   0.967   1.009   0.978   0.995   1.037   1.010   0.961   0.946   0.991   1.014   1.126   1.110   1.098   0.941   0.999   0.979   0.984
   101.00    1.064   1.095   1.041   1.106   1.156   1.117   1.037   1.009   0.898   0.969   0.928   1.052   1.143   1.052   0.979   0.902   0.829   0.939   0.877   0.923   0.959   0.945   0.895   0.884   0.979   1.036   0.987   1.112   0.976   0.887   0.904   0.947   1.024   0.961   1.004   0.978   1.034   1.005   1.016   1.010   1.109
    91.00    1.067   1.019   0.987   1.132   1.124   1.057   0.978   0.953   0.932   0.875   0.926   0.948   1.099   0.951   0.959   0.869   0.862   0.960   0.919   0.921   1.000   1.019   0.999   0.971   1.030   0.960   1.044   1.093   0.915   0.932   0.942   1.083   1.042   1.138   1.123   0.998   0.999   0.999   1.006   1.017   1.108
    81.00    1.045   0.973   1.036   1.085   1.036   1.040   0.948   1.045   0.886   0.834   0.907   1.006   1.026   0.925   0.962   0.812   0.884   0.896   0.901   0.937   0.977   1.037   0.929   1.001   1.106   0.924   1.015   1.064   0.965   1.042   1.104   1.051   1.004   1.080   1.106   1.009   0.952   0.903   0.899   0.970   0.998
    71.00    1.023   0.980   1.034   1.084   1.042   0.955   0.938   1.013   0.957   0.925   0.946   0.955   0.948   0.966   0.940   0.868   0.843   0.865   0.926   0.929   0.923   1.022   0.954   1.084   1.023   1.108   0.995   0.935   0.981   1.001   1.065   1.047   0.955   1.044   1.115   1.056   0.905   1.057   0.980   0.936   0.937
    61.00    1.038   1.034   1.075   0.983   0.918   0.884   0.968   0.979   0.896   0.857   0.931   0.931   0.994   0.903   0.899   0.839   0.881   0.941   0.927   0.923   0.934   1.087   1.099   1.032   1.012   1.009   1.020   1.110   0.911   1.020   0.968   1.059   1.069   0.930   0.969   0.975   1.080   0.983   0.907   1.002   1.092
    51.00    1.070   1.038   1.079   0.959   0.903   0.943   0.916   0.949   0.924   0.890   0.953   0.954   0.933   0.914   0.886   0.814   0.849   0.923   0.925   0.976   1.025   1.039   1.079   1.076   1.021   0.967   1.033   1.055   1.013   0.950   0.939   0.934   0.948   0.937   0.939   1.041   0.995   0.967   0.984   1.066   1.087
    41.00    1.040   0.903   1.005   0.843   0.830   0.843   0.935   0.914   0.936   1.011   0.948   0.946   1.017   0.859   0.932   0.940   0.918   0.857   0.905   0.956   1.046   0.961   1.084   1.044   1.058   1.073   1.089   1.020   1.008   0.928   0.878   0.956   0.956   1.009   0.969   0.925   0.894   0.853   0.938   0.988   1.004
    31.00    1.023   0.938   0.964   0.971   0.761   0.811   0.887   0.925   0.995   1.081   0.949   0.976   0.919   0.913   0.949   0.899   0.848   0.979   0.821   0.875   0.943   0.958   1.059   0.988   1.110   1.084   1.094   1.079   1.013   0.793   0.925   0.946   0.992   0.950   0.993   0.893   0.829   0.862   0.919   1.009   0.946
    21.00    1.116   1.012   0.912   0.856   0.774   0.829   0.971   1.021   0.982   1.068   1.022   0.945   0.902   0.978   0.982   0.896   0.877   1.029   0.890   0.848   0.939   0.937   0.975   1.026   1.063   1.012   1.018   0.959   0.916   1.024   0.971   0.944   0.992   0.996   0.916   1.034   0.999   0.937   0.944   0.998   1.004
    11.00    1.016   1.004   0.942   0.934   0.770   0.867   0.903   1.054   1.025   1.025   1.030   0.986   0.971   0.912   0.979   0.931   0.869   0.972   0.931   0.927   0.951   0.977   1.024   0.968   1.018   1.003   0.933   0.962   0.900   0.966   0.953   0.942   1.020   1.068   0.907   0.936   0.970   0.942   0.859   0.969   0.867
     1.00    0.974   0.984   0.867   0.879   0.868   0.905   0.933   1.023   0.959   0.942   1.049   1.050   1.091   0.921   0.938   1.003   0.879   0.828   0.957   1.027   0.935   0.951   0.995   1.028   1.053   0.937   1.034   0.950   0.877   0.942   0.965   0.993   0.932   0.980   0.973   0.968   0.994   0.975   0.915   0.947   0.901

   Mean standard deviation across all grid points:
      u component:    0.956 m/s
      v component:    0.962 m/s
      w component:    0.976 m/s


U-component (X) statistics from the interpolated hub point:

   Mean =  10.0066 m/s
   TI   =  11.0967 %


Processing complete.  8.3906 CPU seconds used.
