
This summary file was generated by TurbSim (from OpenFAST-v3.4.1) on 25-Nov-2024 at 22:30:01.


Runtime Options:

      2043  Random seed #1
         0  Random seed #2
         F  Output binary HH turbulence parameters?
         F  Output formatted turbulence parameters?
         F  Output AeroDyn HH files?
         T  Output AeroDyn FF files?
         F  Output BLADED FF files?
         F  Output tower data?
         F  Output HAWC FF files?
         F  Output formatted FF files?
         T  Output coherent turbulence time step file?
 0 -  NONE  IEC turbulence models scaled to exact specified standard deviation


Turbine/Model Specifications:

        31  Vertical grid-point matrix dimension
        41  Horizontal grid-point matrix dimension
     0.100  Time step [seconds]
   200.000  Analysis time [seconds]
   200.000  Usable output time [seconds]
   151.000  Hub height [m]
   300.000  Grid height [m]
   600.000  Grid width [m]
     0.000  Vertical flow angle [degrees]
     0.000  Horizontal flow angle [degrees]


Meteorological Boundary Conditions:

    IECVKM  IEC von Karman spectral model
         1  IEC standard: IEC 61400-1 Ed. 2: 1999
    10.000  Percent turbulence intensity, IEC 61400-1 Ed. 2: 1999
       NTM  IEC Normal Turbulence Model
       N/A  IEC Extreme Turbulence Model (ETM) "c" parameter [m/s]
       PL   Wind profile type
   150.000  Reference height [m]
    10.000  Reference wind speed [m/s]
       N/A  Jet height [m]
     0.100  Power law exponent
     0.030  Surface roughness length [m]


Non-IEC Meteorological Boundary Conditions:

       N/A  Site latitude [degrees]
       N/A  Gradient Richardson number
       N/A  Friction or shear velocity [m/s]
       N/A  Mixing layer depth [m]
       N/A  Mean hub u'w' Reynolds stress
       N/A  Mean hub u'v' Reynolds stress
       N/A  Mean hub v'w' Reynolds stress


Spatial Coherence Models:

       IEC  u-component coherence model
       IEC  v-component coherence model
       IEC  w-component coherence model
(   12.000, 0.659E-03)  u-component coherence parameters
(   12.000, 0.659E-03)  v-component coherence parameters
(   12.000, 0.659E-03)  w-component coherence parameters
       N/A  Coherence exponent


You have requested that the following file(s) be generated:

   ./TurbulentWind_20WT/FOWTs/Wind\InflowWind_High_WT19.bts (AeroDyn/TurbSim full-field wind file)


Turbulence Simulation Scaling Parameter Summary:

   Turbulence model used                            =  IEC von Karman
   Turbulence characteristic                        =  User-specified
   IEC standard                                     =  IEC 61400-1 Ed. 2: 1999
   Mean wind speed at hub height                    =   10.007 m/s
   Characteristic value of standard deviation       =    1.001 m/s
   Turbulence scale                                 =   21.000 m
   Isotropic integral scale                         =   73.500 m
   Characteristic value of hub turbulence intensity =   10.000%
   Gradient Richardson number                       =    0.000

   Wind profile type                                =  Power law
   Power law exponent                               =    0.100
   Mean shear across rotor disk                     =    0.016 (m/s)/m
   Assumed rotor diameter                           =  300.000 m
   Surface roughness length                         =    0.030 m

   Nyquist frequency of turbulent wind field        =    5.000 Hz

   Number of time steps in the FFT                  =     2600
   Number of time steps output                      =     2600
   Number of points simulated                       =     1271


Mean Flow Angles:

   Vertical   =   0.0 degrees
   Horizontal =   0.0 degrees

Mean Wind Speed Profile:

   Height    Wind Speed   Horizontal Angle  Vertical Angle  U-comp (X)   V-comp (Y)   W-comp (Z)
     (m)        (m/s)         (degrees)       (degrees)       (m/s)        (m/s)        (m/s)   
   ------    ----------   ----------------  --------------  ----------   ----------   ----------
    301.0       10.72            0.00            0.00         10.72         0.00         0.00
    291.0       10.69            0.00            0.00         10.69         0.00         0.00
    281.0       10.65            0.00            0.00         10.65         0.00         0.00
    271.0       10.61            0.00            0.00         10.61         0.00         0.00
    261.0       10.57            0.00            0.00         10.57         0.00         0.00
    251.0       10.53            0.00            0.00         10.53         0.00         0.00
    241.0       10.49            0.00            0.00         10.49         0.00         0.00
    231.0       10.44            0.00            0.00         10.44         0.00         0.00
    221.0       10.40            0.00            0.00         10.40         0.00         0.00
    211.0       10.35            0.00            0.00         10.35         0.00         0.00
    201.0       10.30            0.00            0.00         10.30         0.00         0.00
    191.0       10.24            0.00            0.00         10.24         0.00         0.00
    181.0       10.19            0.00            0.00         10.19         0.00         0.00
    171.0       10.13            0.00            0.00         10.13         0.00         0.00
    161.0       10.07            0.00            0.00         10.07         0.00         0.00
    151.0       10.01            0.00            0.00         10.01         0.00         0.00
    141.0        9.94            0.00            0.00          9.94         0.00         0.00
    131.0        9.87            0.00            0.00          9.87         0.00         0.00
    121.0        9.79            0.00            0.00          9.79         0.00         0.00
    111.0        9.70            0.00            0.00          9.70         0.00         0.00
    101.0        9.61            0.00            0.00          9.61         0.00         0.00
     91.0        9.51            0.00            0.00          9.51         0.00         0.00
     81.0        9.40            0.00            0.00          9.40         0.00         0.00
     71.0        9.28            0.00            0.00          9.28         0.00         0.00
     61.0        9.14            0.00            0.00          9.14         0.00         0.00
     51.0        8.98            0.00            0.00          8.98         0.00         0.00
     41.0        8.78            0.00            0.00          8.78         0.00         0.00
     31.0        8.54            0.00            0.00          8.54         0.00         0.00
     21.0        8.22            0.00            0.00          8.22         0.00         0.00
     11.0        7.70            0.00            0.00          7.70         0.00         0.00
      1.0        6.06            0.00            0.00          6.06         0.00         0.00


Harvested Random Seeds after Generation of the Random Numbers:

    251392931 Harvested seed # 1
   1971657505 Harvested seed # 2


Hub-Height Simulated Turbulence Statistical Summary:

   Type of Wind        Min (m/s)   Mean (m/s)    Max (m/s)  Sigma (m/s)       TI (%)
   ----------------    ---------   ----------    ---------  -----------       ------
   Longitudinal (u)         7.49        10.01        12.69        0.855        8.544
   Lateral (v)             -3.08        -0.00         3.53        0.971        9.699
   Vertical (w)            -3.05         0.00         2.90        1.080       10.791
   U component              7.49        10.01        12.69        0.855        8.544
   V component             -3.08        -0.00         3.53        0.971        9.699
   W component             -3.05         0.00         2.90        1.080       10.791
   Horizontal (U&V)         7.56        10.05        12.72        0.847        8.427
   Total                    7.66        10.11        12.73        0.838        8.283

                       Min Reynolds     Mean Reynolds    Max Reynolds    Correlation
   Product             Stress (m/s)^2   Stress (m/s)^2   Stress (m/s)^2  Coefficient
   ----------------    --------------   --------------   --------------  -----------
   u'w'                     -3.983             0.168             5.808         0.182
   u'v'                     -4.038             0.005             5.047         0.006
   v'w'                     -5.888            -0.074             3.835        -0.071


   Friction Velocity (Ustar)  =      0.410 m/s
   Maximum Instantaneous TKE  =      7.190 (m/s)^2
   Maximum Instantaneous CTKE =      3.926 (m/s)^2


Grid Point Variance Summary:

   Y-coord -300.00 -285.00 -270.00 -255.00 -240.00 -225.00 -210.00 -195.00 -180.00 -165.00 -150.00 -135.00 -120.00 -105.00  -90.00  -75.00  -60.00  -45.00  -30.00  -15.00    0.00   15.00   30.00   45.00   60.00   75.00   90.00  105.00  120.00  135.00  150.00  165.00  180.00  195.00  210.00  225.00  240.00  255.00  270.00  285.00  300.00

   Height   Standard deviation at grid points for the u component:
   301.00    0.894   1.032   0.935   0.999   1.029   0.971   1.045   1.006   0.960   1.009   1.126   1.022   1.104   1.228   1.138   1.044   0.975   1.012   0.876   0.931   0.871   0.759   0.775   0.815   0.918   0.906   1.051   0.963   0.975   0.970   0.992   0.866   0.975   1.108   1.033   1.026   0.970   0.938   0.860   0.856   0.887
   291.00    0.893   0.979   1.055   1.226   1.083   1.051   1.089   0.998   1.016   1.152   1.198   1.222   1.114   1.254   1.208   0.978   1.026   1.003   0.889   0.926   0.863   0.805   0.802   0.881   0.905   1.003   1.074   1.026   1.041   1.053   1.017   0.968   1.021   0.987   0.941   0.968   0.922   1.054   0.903   0.879   0.864
   281.00    0.937   1.047   1.096   1.212   1.132   1.058   1.072   0.990   1.079   1.148   1.158   1.122   1.208   1.301   1.156   1.005   1.174   0.977   1.043   0.910   0.818   0.868   0.846   0.860   0.990   1.067   1.152   1.053   1.107   1.213   1.091   1.068   1.023   1.030   0.946   0.997   0.919   1.030   0.973   0.904   0.929
   271.00    0.979   1.020   1.079   1.203   1.135   1.031   1.015   0.920   0.999   1.115   1.116   1.225   1.255   1.345   1.175   1.135   1.095   1.067   1.016   0.936   0.857   0.943   0.810   0.918   0.925   0.989   1.105   1.149   1.165   1.186   1.276   1.064   1.023   1.010   0.934   0.836   0.915   0.777   0.944   0.906   0.990
   261.00    0.963   0.954   1.105   1.135   1.151   0.998   0.992   0.948   0.953   1.035   1.053   1.129   1.124   1.234   1.129   1.124   1.135   1.073   1.056   0.859   0.779   1.055   0.881   0.893   0.967   0.946   0.986   1.081   1.221   1.201   1.200   1.185   1.023   0.978   0.945   0.927   0.965   0.915   0.958   1.026   0.994
   251.00    1.000   0.983   1.109   1.148   1.088   1.018   0.929   1.075   0.991   1.066   1.070   1.064   1.103   1.066   1.075   1.166   1.063   1.065   1.040   0.938   0.776   0.991   1.004   0.961   0.936   0.908   1.036   1.023   1.253   1.257   1.266   1.134   1.014   1.076   0.967   0.988   0.984   0.910   0.869   1.036   1.162
   241.00    0.866   1.023   1.123   1.036   0.988   1.040   0.944   1.006   1.083   1.018   1.196   1.113   1.092   1.080   1.146   1.147   0.964   1.031   1.002   0.939   0.872   0.862   0.931   0.951   0.910   0.953   1.031   1.051   1.221   1.337   1.242   1.110   1.126   0.978   1.050   0.949   0.871   0.815   0.894   1.068   1.088
   231.00    0.937   0.979   0.952   1.090   1.121   1.101   1.024   1.091   1.086   1.059   1.077   0.929   1.009   1.070   1.127   1.126   1.094   1.177   1.057   0.929   0.855   0.813   0.890   1.022   0.841   0.952   0.953   0.993   1.093   1.331   1.209   1.209   0.946   1.055   1.050   1.003   0.948   0.764   0.848   0.918   0.925
   221.00    0.881   0.939   0.937   0.994   1.042   1.042   1.076   1.129   0.974   1.007   0.943   0.947   0.973   1.074   1.115   1.049   1.102   1.135   1.095   1.054   0.858   0.803   0.889   0.909   0.987   0.933   0.862   0.977   1.239   1.289   1.365   1.172   1.115   1.058   1.029   1.078   0.941   0.865   0.854   0.937   0.906
   211.00    0.823   0.893   0.911   0.907   0.934   0.945   1.035   1.028   0.974   0.943   0.926   0.991   1.084   1.043   0.918   0.932   1.030   0.909   1.084   0.923   0.831   0.888   0.972   1.031   0.983   0.988   0.976   1.094   1.206   1.292   1.295   1.283   1.122   1.064   1.171   1.079   0.960   0.931   0.936   0.918   0.928
   201.00    0.762   0.848   0.868   0.901   0.894   0.905   0.937   0.814   0.912   1.002   1.003   0.996   0.993   0.970   0.960   0.917   0.861   0.966   1.010   0.920   0.862   0.975   1.003   1.006   0.914   1.041   1.050   1.288   1.124   1.315   1.334   1.256   1.056   1.045   1.124   0.970   1.062   0.867   0.897   0.923   0.834
   191.00    0.797   0.881   0.899   0.906   0.830   0.874   0.885   0.790   0.884   1.008   0.856   1.038   1.053   0.997   0.873   0.934   0.902   0.992   0.821   0.890   0.933   0.897   0.888   0.965   0.904   1.009   1.113   1.209   1.229   1.269   1.306   1.263   1.089   1.047   1.108   1.033   0.962   0.813   0.843   0.888   0.809
   181.00    0.871   0.832   0.893   0.863   0.837   0.758   0.871   0.829   0.864   0.921   0.998   1.039   1.041   1.013   0.873   0.941   0.915   0.892   0.874   0.902   0.818   0.895   0.825   0.937   0.976   0.996   1.015   1.045   1.087   1.154   1.243   1.184   1.101   1.088   1.043   0.998   0.937   0.783   0.898   0.860   0.903
   171.00    0.889   0.816   0.810   0.833   0.870   0.944   0.862   0.871   0.953   0.802   0.980   1.067   1.052   0.988   0.921   0.909   0.890   0.957   1.025   0.982   0.807   0.861   0.869   0.903   1.065   0.981   1.025   1.139   1.135   1.063   1.164   1.171   1.180   1.135   1.125   0.981   0.882   0.707   0.832   0.815   0.947
   161.00    0.936   0.982   0.946   0.824   0.819   0.967   1.056   1.055   0.954   0.968   0.896   1.103   0.964   0.937   0.969   0.896   0.863   0.936   0.998   0.911   0.909   0.812   0.929   0.965   0.861   0.997   0.998   1.104   1.057   0.970   1.059   0.976   1.147   1.233   1.048   1.038   0.925   0.794   0.733   0.943   1.030
   151.00    0.984   0.906   0.918   0.881   0.891   0.958   1.149   1.102   0.944   0.799   0.929   1.001   0.982   1.029   0.989   0.947   0.862   0.770   0.874   0.893   0.855   0.827   0.934   0.949   0.946   0.993   0.983   0.988   1.043   0.971   0.953   0.830   1.072   1.127   1.128   1.061   0.996   0.893   0.829   0.978   1.003
   141.00    0.920   0.943   0.940   0.858   0.942   0.919   1.110   1.052   0.952   0.815   0.964   0.916   0.878   0.968   0.906   0.990   0.958   0.940   0.934   0.937   0.956   0.946   0.994   0.930   0.926   0.983   1.035   1.012   1.030   1.061   0.909   0.927   1.013   1.098   1.236   1.098   0.871   0.933   0.971   1.013   1.114
   131.00    0.897   1.025   0.920   0.895   0.940   1.003   0.993   0.932   0.958   0.854   0.952   0.967   0.926   0.952   0.875   0.959   0.942   0.929   0.891   0.987   1.018   0.962   1.018   1.032   0.929   1.072   1.059   1.114   1.111   1.059   0.933   1.057   1.081   1.125   1.158   1.030   0.892   0.990   0.995   1.095   1.247
   121.00    0.888   1.017   0.941   0.962   0.855   0.902   0.933   0.952   0.894   0.901   0.918   0.922   1.010   0.990   1.029   0.983   1.014   0.976   0.996   1.018   0.963   0.994   1.001   1.024   1.024   1.032   1.036   1.004   1.057   0.970   0.977   0.947   1.027   1.044   0.977   1.113   1.055   1.009   1.061   1.166   1.209
   111.00    0.869   1.037   1.022   0.917   0.785   0.847   0.950   1.000   0.905   0.941   0.945   0.992   1.140   1.015   0.918   0.957   0.957   0.884   0.958   1.027   1.138   1.088   1.044   1.027   0.979   1.129   1.010   1.008   0.999   0.903   0.944   0.958   0.881   1.018   1.009   1.085   0.991   1.137   1.176   1.166   1.188
   101.00    0.870   0.961   0.922   0.879   0.818   0.823   0.922   0.939   1.008   1.008   0.871   1.109   1.089   1.075   1.052   0.999   0.908   1.011   1.091   1.121   1.067   1.046   1.066   1.045   1.120   1.026   1.006   1.113   1.089   0.916   0.927   0.930   1.092   1.138   1.054   1.006   1.023   1.091   1.028   1.102   1.065
    91.00    0.920   0.977   0.947   0.818   0.759   0.818   0.918   0.917   0.989   0.969   0.884   1.063   1.077   1.012   1.138   0.900   0.939   0.853   1.060   0.991   0.945   1.090   0.953   0.989   1.135   1.041   1.095   1.237   1.036   0.866   0.883   0.929   1.000   1.064   1.080   1.003   0.966   1.065   1.090   1.026   1.086
    81.00    1.000   0.985   0.924   0.853   0.763   0.875   0.992   0.857   1.009   0.980   0.996   1.054   1.060   1.014   1.072   0.951   0.819   0.984   1.039   0.967   0.983   1.016   0.957   1.022   1.119   1.187   1.208   1.163   1.047   0.914   0.924   0.973   0.988   1.031   0.980   1.082   1.029   1.092   1.134   1.056   0.995
    71.00    0.913   0.861   0.988   0.934   0.880   0.956   0.964   0.838   1.012   1.082   0.935   1.171   1.105   1.039   1.023   0.868   0.874   0.971   0.982   1.009   1.091   1.094   1.039   1.069   1.144   1.144   1.054   1.134   1.007   1.014   0.884   1.020   0.958   0.905   0.943   1.053   1.123   1.153   1.043   1.042   0.996
    61.00    0.968   1.025   1.018   0.954   0.942   0.910   0.967   0.958   1.026   1.073   1.033   1.113   1.066   1.042   1.041   0.900   0.816   0.952   1.012   0.953   1.040   1.174   1.202   1.195   1.182   1.081   0.962   1.118   0.991   0.978   0.850   1.035   0.918   1.068   0.933   1.022   0.997   1.119   1.107   1.105   0.889
    51.00    0.869   1.018   1.007   0.904   0.881   0.875   0.902   1.085   1.016   0.999   1.114   1.055   1.008   1.085   1.008   0.903   0.869   0.991   0.922   0.957   0.989   0.970   1.099   1.124   1.159   1.042   1.064   1.152   1.021   0.890   0.952   1.054   1.046   1.015   1.024   0.985   0.956   1.030   1.090   1.188   1.068
    41.00    1.028   0.910   1.001   0.973   1.146   0.905   1.016   1.140   0.879   0.883   1.041   0.940   1.019   0.887   1.051   1.040   0.969   0.997   0.982   0.886   1.040   1.034   0.978   0.971   1.149   1.028   0.973   0.984   0.884   0.882   0.905   0.901   0.959   0.936   0.982   1.062   0.887   0.970   1.060   1.140   0.945
    31.00    0.868   0.978   0.992   1.118   1.188   1.068   0.974   0.995   0.922   1.017   1.037   1.057   1.012   0.861   0.970   1.101   1.200   1.032   0.977   0.771   0.860   0.916   0.950   0.877   1.108   1.130   1.121   0.968   0.961   0.991   0.951   0.882   0.905   0.916   0.972   0.939   0.948   1.074   1.085   1.088   1.008
    21.00    0.951   0.846   1.022   1.177   1.131   1.069   0.910   0.962   0.861   0.944   1.011   0.981   0.989   0.946   1.005   1.038   1.122   1.104   1.053   0.913   0.911   0.958   0.973   0.978   1.066   1.119   1.068   1.063   0.959   0.905   0.974   0.929   0.825   0.906   0.920   0.852   0.923   1.030   1.024   1.032   1.015
    11.00    0.934   0.956   1.020   1.113   1.022   0.975   1.041   0.959   0.897   0.916   1.003   1.005   1.018   0.803   0.820   0.941   1.158   1.188   1.012   1.027   0.898   0.924   0.946   0.999   1.098   1.103   1.026   1.075   0.880   0.954   0.868   0.886   0.902   0.824   0.987   0.896   0.928   1.031   1.058   0.816   1.024
     1.00    0.963   0.889   0.986   0.930   0.917   0.902   0.944   0.919   0.904   0.842   0.903   1.026   0.923   0.932   0.934   0.981   1.093   1.150   0.977   1.046   0.838   0.950   0.921   1.045   1.002   0.926   0.960   0.967   0.886   0.890   0.913   1.038   0.952   0.881   0.889   0.955   0.979   1.032   1.039   0.983   0.989

   Height   Standard deviation at grid points for the v component:
   301.00    0.804   0.890   0.839   0.872   0.903   0.920   0.899   0.929   1.021   1.000   0.884   0.842   0.960   0.936   0.894   0.997   0.985   0.868   0.855   0.907   0.984   0.936   0.898   0.975   0.898   0.980   1.108   1.175   1.066   0.941   0.910   1.020   0.872   0.921   0.942   0.971   0.900   0.860   0.987   0.971   0.966
   291.00    0.912   0.817   0.891   0.896   0.958   0.969   0.811   0.906   0.959   0.961   0.934   0.911   0.918   0.938   0.875   1.000   0.986   0.820   0.793   0.921   0.883   1.012   0.976   1.022   0.924   1.009   1.068   1.116   1.051   0.919   0.995   0.920   0.885   0.937   0.895   0.894   0.953   0.978   0.965   0.923   0.894
   281.00    0.848   0.860   0.869   0.981   0.929   0.923   0.886   0.894   0.946   0.919   0.914   0.983   0.996   1.021   0.988   1.026   0.989   0.849   0.834   1.008   0.997   1.020   1.007   0.877   0.887   0.983   1.062   1.001   1.040   0.930   1.001   0.960   0.892   0.853   0.927   0.935   0.967   1.008   0.897   0.869   0.913
   271.00    0.906   0.883   0.938   0.978   0.853   0.826   0.829   0.938   0.885   0.905   0.934   0.980   0.948   0.958   0.886   0.919   0.992   0.838   0.959   0.924   0.984   0.927   0.975   0.988   1.029   0.961   1.012   1.109   1.110   0.969   0.977   0.920   0.877   0.930   0.951   0.917   0.926   0.906   0.902   0.938   0.864
   261.00    0.917   0.926   0.926   0.949   0.867   0.777   0.859   0.885   0.876   0.900   0.969   0.939   0.986   0.871   0.796   0.915   1.048   0.962   0.891   0.876   0.866   0.959   0.947   0.960   1.065   1.101   1.041   1.148   1.036   0.984   0.908   0.932   0.889   0.870   1.013   0.919   0.899   0.966   0.961   0.992   0.968
   251.00    0.889   0.847   0.879   0.998   0.900   0.948   0.964   0.928   0.956   1.019   0.954   1.068   0.990   0.954   0.858   0.917   0.978   0.989   0.884   0.885   0.977   0.997   0.910   0.988   0.955   1.037   1.115   1.086   1.081   0.979   0.926   0.910   1.004   0.895   0.938   0.850   0.854   0.951   1.017   0.967   1.054
   241.00    0.878   0.915   1.054   1.062   0.987   0.935   0.879   0.927   1.017   1.031   1.031   1.049   0.923   0.866   0.879   0.902   0.958   0.906   0.874   0.899   0.924   0.979   0.973   0.911   1.037   1.030   1.080   1.095   1.017   0.972   0.989   0.929   0.867   0.888   0.992   0.824   0.888   0.897   0.883   0.859   0.894
   231.00    0.916   0.990   0.977   1.099   1.036   0.926   0.859   0.900   0.870   1.024   1.039   0.965   0.895   0.870   0.857   0.886   0.854   0.888   0.911   0.917   1.026   0.930   0.887   0.972   1.042   1.140   1.059   1.017   0.988   0.982   0.943   1.000   0.832   0.901   0.975   0.894   0.905   0.811   0.768   0.869   0.859
   221.00    0.965   0.978   1.024   0.996   1.115   1.109   0.952   0.880   0.923   1.005   1.039   1.013   0.865   0.920   0.952   0.928   0.879   0.895   0.909   0.899   0.967   0.864   0.902   0.922   1.109   1.015   1.065   1.010   0.893   0.913   0.901   0.911   0.931   0.976   0.912   0.830   0.822   0.826   0.776   0.825   0.977
   211.00    0.874   0.918   0.941   0.919   1.081   1.018   1.021   0.911   0.982   0.875   1.049   1.006   0.858   0.900   0.880   0.901   0.854   0.866   0.893   0.886   0.968   0.923   0.946   0.972   1.116   1.053   1.007   0.923   0.898   0.970   0.962   0.986   0.795   0.906   0.892   0.911   0.784   0.853   0.826   0.970   1.016
   201.00    0.950   0.856   0.988   0.928   0.981   1.012   1.029   1.089   0.981   1.026   1.003   0.946   0.852   0.861   0.873   0.890   0.827   0.906   0.921   0.903   0.897   0.977   0.930   0.969   1.015   1.002   0.952   1.035   0.996   1.008   1.028   0.976   0.979   0.876   0.762   0.874   0.978   0.899   0.935   1.012   0.886
   191.00    0.844   0.822   0.888   0.857   0.939   1.032   1.012   1.113   1.097   0.926   0.910   0.944   0.827   0.913   0.886   0.832   0.909   0.877   0.886   0.884   0.926   1.051   0.949   1.036   0.973   1.039   0.956   1.039   1.020   0.997   1.023   0.990   1.001   0.874   0.763   0.860   0.951   0.895   0.919   1.000   0.971
   181.00    0.820   0.871   0.807   0.889   0.939   0.973   0.961   1.044   1.036   0.941   1.015   0.887   0.870   0.880   0.850   0.896   1.034   0.947   0.883   0.906   1.033   1.021   1.041   0.981   0.911   1.071   1.042   1.127   0.888   0.957   0.962   0.953   0.976   0.920   0.909   0.843   0.921   0.972   0.961   0.910   0.973
   171.00    0.945   0.738   0.848   0.870   1.008   0.957   0.935   0.959   1.051   0.997   0.961   0.909   0.921   0.966   0.983   0.921   1.090   0.919   0.956   0.914   1.073   1.066   1.165   0.919   0.894   1.091   1.102   1.085   1.013   0.937   0.963   0.992   1.017   0.987   0.957   0.930   0.905   0.860   0.893   0.892   0.944
   161.00    0.884   0.789   0.827   0.978   1.005   0.941   0.983   0.963   1.028   0.962   0.998   0.848   0.971   0.962   1.006   1.055   1.072   0.999   0.892   0.982   0.961   0.999   1.032   1.127   0.918   1.029   1.053   0.968   0.997   0.963   0.990   1.033   1.129   1.050   1.020   0.872   1.017   0.928   0.964   0.969   0.987
   151.00    0.849   0.831   0.847   1.032   0.999   0.959   1.007   0.967   1.080   1.015   0.997   0.857   0.928   1.025   0.989   1.044   1.027   1.087   1.034   0.992   0.971   0.996   0.955   1.036   1.000   1.049   1.052   0.983   1.060   0.974   0.967   0.965   1.053   1.086   1.008   0.887   0.926   0.906   0.973   0.958   0.977
   141.00    0.831   0.908   0.945   1.042   0.959   0.991   0.932   0.927   1.034   0.910   0.907   0.836   0.880   0.991   1.054   1.014   1.065   1.037   1.071   1.033   0.930   0.901   0.987   1.002   0.960   0.997   0.883   0.996   1.061   1.023   0.985   1.048   1.154   1.114   1.088   0.957   0.914   0.903   0.982   1.041   1.049
   131.00    0.814   0.912   0.900   0.989   1.062   1.067   1.060   0.983   1.009   0.967   0.817   0.869   0.943   1.028   0.963   0.954   1.023   1.003   0.926   0.950   0.970   0.845   0.924   0.960   0.979   0.953   0.916   1.033   1.114   0.964   1.100   1.146   1.175   1.063   1.045   1.065   0.987   1.043   1.093   1.069   0.965
   121.00    0.919   0.893   0.929   0.921   1.048   1.126   1.053   1.087   1.037   0.954   0.865   0.858   0.969   0.923   0.933   0.953   1.015   0.940   1.096   0.998   1.029   0.922   0.985   0.999   0.987   0.984   0.980   0.984   0.997   1.029   1.075   1.145   1.167   1.050   1.003   1.035   0.941   1.016   0.973   1.021   0.902
   111.00    1.066   1.006   0.951   1.035   1.151   1.141   0.973   1.057   1.076   0.973   1.011   0.858   0.950   0.837   0.927   1.028   0.933   0.952   1.167   1.024   0.972   1.013   1.028   0.917   0.910   0.902   0.969   1.105   1.003   1.034   1.106   1.197   1.125   0.982   0.967   1.035   1.017   0.936   0.963   1.037   0.939
   101.00    1.090   1.014   0.925   1.096   1.063   1.104   1.082   1.048   1.056   1.071   0.966   1.003   0.967   0.918   0.868   1.066   0.936   0.970   1.070   1.047   1.044   0.919   0.972   0.933   0.919   0.867   0.960   1.025   1.084   1.092   1.134   1.170   1.119   1.022   1.120   0.935   0.950   0.905   0.960   1.009   1.059
    91.00    0.996   0.975   0.971   1.030   1.012   0.975   1.000   1.019   1.006   1.024   0.902   0.998   0.889   0.824   0.823   0.995   1.042   0.941   0.981   1.011   0.985   1.066   0.849   0.940   0.885   0.964   0.978   1.035   1.090   1.160   1.057   1.049   1.095   1.048   1.076   1.016   0.873   0.957   0.963   1.060   1.118
    81.00    0.949   0.936   0.980   0.895   0.933   0.999   0.910   0.949   0.930   1.045   0.943   0.955   0.831   0.931   0.828   0.929   1.061   0.977   1.002   1.050   1.078   1.049   1.075   0.998   0.917   0.977   0.944   0.979   0.956   1.101   1.013   1.066   1.072   1.007   0.998   0.911   0.865   1.025   0.925   1.065   1.183
    71.00    0.890   0.840   0.946   0.924   0.996   1.099   0.972   1.031   0.969   0.930   0.949   0.933   0.916   0.868   0.800   0.854   1.024   1.081   0.953   1.027   1.058   1.044   1.053   1.100   0.929   0.963   0.934   0.937   1.116   1.140   0.968   1.030   0.989   0.912   0.943   0.874   0.849   0.993   0.976   1.147   1.197
    61.00    0.888   0.812   0.897   0.935   0.901   1.064   0.997   0.952   0.986   0.884   0.871   0.881   0.939   0.873   0.804   0.818   1.022   1.065   1.124   1.022   1.021   0.992   1.106   1.072   1.119   0.819   0.967   1.056   1.085   0.993   0.954   1.023   0.942   1.032   0.909   0.989   1.026   0.895   1.061   1.100   1.050
    51.00    0.954   0.878   0.896   0.917   0.931   0.980   0.998   1.074   1.029   0.916   0.841   0.855   0.882   0.855   0.849   0.910   1.053   0.951   1.016   1.122   1.022   1.037   1.043   0.941   1.079   0.996   1.013   1.025   1.007   1.029   0.856   0.982   0.946   1.051   0.950   0.894   0.988   0.889   0.960   1.012   0.982
    41.00    0.924   0.861   0.892   0.829   0.935   1.006   1.158   1.167   0.949   1.028   0.831   0.903   0.899   0.881   0.989   1.048   1.007   1.096   0.960   1.099   1.196   1.005   1.117   0.863   1.022   0.988   1.065   0.999   0.926   1.039   1.060   1.026   0.930   0.982   0.999   0.970   0.947   0.782   0.877   0.866   0.943
    31.00    0.871   0.948   0.896   0.880   0.938   1.052   1.041   1.124   1.049   1.076   0.969   0.845   0.910   0.910   0.986   1.033   0.964   0.972   0.998   1.000   1.135   1.062   0.973   0.963   0.948   0.901   1.040   0.926   0.961   0.955   1.055   1.067   1.077   0.984   0.937   0.968   0.846   0.951   0.963   0.868   0.909
    21.00    1.013   0.886   0.974   0.918   0.897   1.016   0.997   1.080   1.042   1.028   0.979   0.898   0.891   0.973   1.004   1.045   0.997   1.024   0.999   0.981   1.038   1.021   0.960   0.831   0.952   0.946   0.953   0.968   0.984   0.945   1.036   0.977   0.997   0.960   0.982   0.934   0.853   0.971   0.887   0.910   0.943
    11.00    1.022   1.091   0.974   0.893   0.867   0.919   0.956   1.045   1.027   0.952   1.012   0.930   0.813   0.895   1.015   1.073   1.096   0.953   1.005   0.985   1.013   1.115   0.983   0.978   0.905   0.901   0.917   0.923   1.016   0.980   1.004   0.948   0.932   1.001   0.982   0.882   0.839   0.882   0.961   0.935   0.907
     1.00    0.974   1.112   1.046   0.843   0.939   0.931   0.895   0.946   1.077   0.912   1.030   0.942   0.885   0.927   0.946   0.929   1.003   0.986   1.021   0.987   0.930   1.027   1.023   0.988   1.006   0.861   0.994   1.029   0.964   0.901   0.977   0.885   0.925   1.005   0.937   0.938   0.931   0.980   1.043   0.948   0.868

   Height   Standard deviation at grid points for the w component:
   301.00    0.922   0.931   0.904   0.916   0.933   0.936   0.921   0.994   0.995   0.836   0.969   0.987   1.002   1.008   1.018   0.939   0.956   0.913   0.968   0.975   0.959   0.953   0.997   1.095   1.187   1.034   0.945   0.946   0.970   0.986   1.017   1.012   0.970   0.958   0.975   0.923   0.977   0.999   1.013   1.030   1.097
   291.00    0.957   1.053   0.947   0.947   0.941   0.956   0.857   0.897   1.026   0.937   1.032   1.012   0.924   0.929   1.083   0.999   0.949   1.000   1.022   1.101   0.986   0.961   0.912   1.012   1.117   1.091   0.924   0.905   0.965   0.997   0.967   0.913   0.926   0.976   0.930   0.985   0.964   0.934   1.060   0.986   1.013
   281.00    0.927   0.978   0.915   0.923   0.942   0.862   0.892   0.914   0.985   0.908   1.007   1.024   0.890   0.883   1.062   1.066   1.037   0.989   1.059   1.130   0.978   0.870   0.919   1.020   1.029   1.040   0.893   0.901   0.926   1.033   0.907   0.870   0.885   0.964   1.058   1.057   0.855   1.014   1.008   0.990   1.057
   271.00    0.843   0.903   0.929   0.960   0.953   0.820   0.935   0.914   0.917   0.922   0.942   0.942   0.863   0.942   1.001   1.160   1.033   1.040   1.009   1.051   0.903   0.992   1.025   0.945   0.946   0.934   0.807   0.971   1.115   1.040   0.953   0.917   0.940   1.112   1.228   1.039   0.909   0.922   0.992   0.992   1.034
   261.00    0.852   0.883   0.872   0.918   0.964   0.883   0.963   0.943   0.960   0.934   0.954   0.872   0.906   0.898   0.960   1.128   1.083   0.984   0.914   0.974   0.934   1.002   1.030   0.909   0.851   0.903   0.884   0.968   1.075   1.127   1.015   0.995   1.019   1.139   1.156   1.141   1.037   0.974   0.934   1.031   1.012
   251.00    0.829   0.833   0.858   0.967   0.907   0.990   0.866   0.955   0.963   1.031   0.964   0.904   0.857   0.850   0.993   1.012   0.978   0.999   0.924   0.938   0.945   1.029   1.030   0.902   0.837   0.895   0.986   1.039   1.055   1.026   0.973   0.913   1.077   1.100   1.030   1.111   1.038   1.032   1.052   0.920   0.962
   241.00    0.809   0.951   1.009   0.960   0.934   0.949   0.936   1.040   0.918   0.917   0.960   0.934   0.931   0.982   0.916   1.007   0.913   0.993   1.047   0.887   1.025   1.013   0.999   0.899   0.919   1.029   1.017   1.014   1.053   1.020   0.966   0.976   1.114   1.173   1.066   0.985   0.999   0.977   0.990   0.910   1.058
   231.00    0.883   0.938   1.035   0.851   0.860   0.896   1.027   1.002   0.937   0.885   0.987   1.013   0.989   0.952   1.008   0.952   1.027   1.031   0.983   0.921   1.065   1.025   0.978   0.861   0.872   1.035   0.961   1.065   1.041   0.964   0.936   1.064   1.054   1.122   1.149   1.054   0.999   0.945   1.035   1.061   1.086
   221.00    0.905   0.946   0.992   0.863   0.855   0.918   1.064   1.030   0.893   0.807   0.929   0.958   0.931   0.887   0.996   0.984   0.988   1.075   1.006   0.966   0.971   0.906   0.869   0.913   0.961   1.016   1.094   1.045   0.973   0.960   0.934   1.044   0.958   0.951   1.061   1.087   0.964   1.060   1.077   1.076   1.102
   211.00    0.868   0.826   0.978   0.987   0.843   0.895   0.972   0.917   0.978   0.862   0.947   0.952   1.033   0.938   1.041   1.042   0.966   0.941   1.042   0.969   0.982   1.014   0.948   0.983   0.993   1.027   1.154   1.024   0.960   0.869   0.918   0.953   0.868   0.891   0.968   1.053   1.095   1.054   1.023   1.065   1.115
   201.00    0.951   0.940   0.966   0.986   0.939   0.876   0.959   0.845   1.030   1.013   1.000   0.936   0.967   0.938   0.984   0.921   0.856   0.872   1.026   1.128   0.953   0.965   1.002   0.998   0.967   1.023   1.088   1.033   1.081   0.951   0.888   1.010   0.975   0.924   0.971   1.007   0.967   0.998   0.981   0.930   1.059
   191.00    0.925   0.855   0.814   0.938   0.995   0.972   0.942   0.870   0.881   0.940   0.966   0.899   1.031   0.917   0.822   0.916   0.870   0.969   1.109   1.060   1.040   1.041   0.991   1.076   1.010   0.964   0.976   1.024   0.994   0.970   1.005   0.883   0.945   0.885   0.906   1.056   0.971   0.924   0.928   0.916   0.952
   181.00    0.843   0.831   0.856   0.901   1.036   0.913   0.846   0.941   0.911   0.940   0.909   0.850   0.970   0.925   0.887   0.915   1.015   1.041   1.050   1.004   0.984   0.990   1.028   0.956   0.979   0.994   0.962   1.021   0.972   1.011   1.008   0.930   1.011   0.949   0.957   0.945   0.940   1.006   0.893   0.949   0.956
   171.00    0.811   0.798   0.901   1.009   0.999   0.897   0.960   0.866   0.816   0.879   0.903   0.840   0.972   0.897   0.863   0.918   1.031   1.059   1.061   0.985   0.977   0.958   0.927   1.077   1.034   0.990   1.044   1.008   1.044   1.006   0.958   1.026   0.905   0.942   0.963   0.921   0.954   0.871   0.929   0.880   0.968
   161.00    0.791   0.817   0.862   0.951   0.973   0.982   0.937   0.835   0.898   0.824   0.896   0.946   1.006   1.059   0.907   0.954   1.075   1.088   1.030   1.066   0.935   0.994   0.967   0.940   1.019   0.987   1.012   1.050   1.134   1.066   1.006   0.956   0.933   0.936   1.006   0.987   0.963   0.933   0.911   0.929   0.968
   151.00    0.938   0.868   0.821   0.910   1.017   0.959   0.951   0.972   0.939   0.933   0.958   0.939   0.880   0.978   0.959   0.931   0.913   1.017   1.035   1.067   1.080   0.993   0.919   1.010   1.119   0.989   1.044   1.162   1.145   1.090   1.014   0.862   0.885   1.010   0.962   0.967   0.931   0.875   0.919   0.878   0.967
   141.00    0.941   0.831   0.906   0.832   0.942   0.984   0.969   0.931   0.875   0.901   1.005   0.931   0.830   0.857   0.932   0.883   0.939   0.956   0.942   0.958   0.945   0.836   0.936   0.973   1.058   1.028   1.140   1.155   0.953   1.057   0.939   0.889   0.958   0.996   0.899   0.903   0.929   0.875   0.920   0.888   0.979
   131.00    1.006   0.915   0.920   1.023   0.888   0.853   0.907   0.994   0.906   0.864   0.911   0.872   0.946   0.894   0.930   0.925   0.828   0.979   0.915   1.012   0.979   0.922   0.964   0.974   1.075   1.026   1.029   1.102   0.972   0.981   1.033   0.909   0.895   0.836   0.832   0.948   0.901   0.998   0.943   0.850   0.821
   121.00    0.902   0.930   0.954   0.920   0.835   0.903   0.905   0.910   0.923   0.769   0.810   0.998   1.096   0.968   0.964   0.932   0.800   0.937   0.999   1.012   0.974   0.880   0.954   0.973   0.988   1.024   1.009   1.092   0.994   1.001   1.052   0.929   0.841   0.867   0.902   0.961   0.971   0.979   0.964   0.973   0.898
   111.00    0.958   0.930   0.867   0.930   0.896   0.876   0.903   0.923   0.797   0.817   0.905   0.918   0.989   0.985   1.044   0.935   0.970   0.956   1.005   0.978   0.921   0.928   0.963   0.973   0.950   0.917   0.936   1.056   1.071   1.023   0.969   0.938   0.874   0.938   0.870   0.901   0.943   0.971   0.957   0.905   0.914
   101.00    0.867   0.898   0.915   0.947   0.826   0.862   0.856   0.863   0.817   0.907   0.930   0.955   0.948   0.883   1.006   1.014   0.919   1.003   0.948   1.001   0.854   0.881   0.913   0.986   0.915   0.952   0.871   0.937   0.967   0.942   0.997   0.990   0.932   0.902   0.884   0.843   1.039   0.925   0.944   0.796   0.844
    91.00    0.897   0.896   0.895   0.941   0.901   0.916   1.078   0.862   0.874   0.931   0.926   0.950   0.858   0.878   0.954   0.915   0.939   0.913   0.952   1.050   0.816   0.984   0.916   0.932   1.010   0.968   1.010   1.019   0.984   1.009   1.070   0.986   0.990   0.912   0.858   0.888   1.014   1.011   0.923   0.850   0.862
    81.00    0.940   0.893   0.891   0.887   0.903   0.935   1.015   0.899   0.903   0.954   0.881   0.858   0.918   0.946   0.991   1.011   0.964   0.946   1.025   1.006   0.917   1.012   0.978   0.911   0.977   0.929   1.062   0.956   1.061   0.949   1.029   1.013   0.912   0.914   1.010   0.876   0.928   0.945   0.969   0.927   0.801
    71.00    0.931   0.903   0.956   0.893   0.840   0.961   0.967   0.899   0.852   0.869   0.865   0.885   0.948   0.924   0.938   0.982   0.977   1.055   0.989   1.015   1.054   1.105   1.010   0.935   0.927   0.997   1.016   1.028   1.042   1.016   0.943   0.896   0.970   1.001   1.031   0.936   0.910   1.043   0.999   0.980   0.877
    61.00    0.947   0.888   0.964   0.950   0.955   0.907   0.911   0.865   0.953   0.822   0.888   0.928   0.874   0.855   0.929   0.883   1.022   1.023   0.934   1.011   1.042   1.068   1.124   1.010   0.982   1.067   1.040   1.032   1.072   1.060   1.060   1.007   0.997   0.965   0.947   0.978   1.007   1.015   1.092   1.037   0.979
    51.00    0.939   0.869   0.900   0.945   0.940   0.904   0.950   0.813   0.916   0.795   0.838   0.920   0.888   0.880   0.998   0.923   1.069   1.025   1.054   0.953   1.089   1.028   1.085   1.056   1.044   1.039   1.053   1.129   1.038   1.089   1.133   0.995   0.941   1.031   1.018   0.972   0.901   1.109   1.117   0.945   0.922
    41.00    0.826   0.822   0.935   0.956   0.900   0.871   1.018   0.887   0.918   0.849   0.892   0.935   0.930   0.920   0.965   1.015   1.012   1.029   0.947   0.994   1.040   0.998   1.023   1.079   1.007   1.010   0.978   1.103   0.980   1.074   1.146   0.959   0.892   1.052   0.953   0.941   0.967   1.110   1.059   0.974   0.909
    31.00    0.877   0.905   0.903   0.831   0.853   0.939   0.995   0.944   0.915   0.969   1.027   0.868   0.950   0.859   0.969   1.053   0.973   0.979   0.956   1.005   0.941   0.993   0.991   0.986   0.905   0.973   0.948   1.052   0.994   1.024   1.104   0.964   0.942   0.982   0.962   0.851   0.915   1.065   1.043   0.958   0.957
    21.00    0.919   0.918   0.970   0.948   0.860   0.910   0.982   0.902   1.064   1.018   1.004   0.874   0.877   0.920   1.023   0.931   0.970   0.911   0.971   1.011   0.976   0.925   0.944   0.978   0.992   1.019   1.044   1.015   0.934   1.075   1.078   0.941   0.869   0.912   0.896   0.964   1.066   1.018   1.035   1.030   1.018
    11.00    0.798   0.880   0.946   0.945   0.949   0.957   0.914   1.034   1.066   1.098   1.089   0.863   0.854   0.939   1.000   1.054   0.897   0.901   0.897   0.953   0.975   0.897   0.982   1.082   0.912   0.937   1.006   0.963   1.121   1.089   1.094   0.965   0.869   0.886   0.948   1.043   1.037   0.960   0.983   0.948   0.987
     1.00    0.974   1.003   0.962   0.968   0.927   0.889   0.881   0.938   1.080   1.116   1.031   0.929   0.930   1.010   1.039   1.092   0.977   0.959   0.924   0.931   0.964   0.927   0.963   1.027   0.993   1.003   0.996   1.071   1.057   1.069   1.038   0.966   0.891   0.895   0.968   0.973   0.949   0.991   0.959   0.959   0.931

   Mean standard deviation across all grid points:
      u component:    0.996 m/s
      v component:    0.965 m/s
      w component:    0.963 m/s


U-component (X) statistics from the interpolated hub point:

   Mean =  10.0066 m/s
   TI   =   8.5445 %


Processing complete.  9.9531 CPU seconds used.
