
This summary file was generated by TurbSim (from OpenFAST-v3.4.1) on 29-Nov-2024 at 15:48:01.


Runtime Options:

      2048  Random seed #1
         0  Random seed #2
         F  Output binary HH turbulence parameters?
         F  Output formatted turbulence parameters?
         F  Output AeroDyn HH files?
         T  Output AeroDyn FF files?
         F  Output BLADED FF files?
         F  Output tower data?
         F  Output HAWC FF files?
         F  Output formatted FF files?
         T  Output coherent turbulence time step file?
 0 -  NONE  IEC turbulence models scaled to exact specified standard deviation


Turbine/Model Specifications:

        31  Vertical grid-point matrix dimension
        41  Horizontal grid-point matrix dimension
     0.100  Time step [seconds]
   200.000  Analysis time [seconds]
   200.000  Usable output time [seconds]
   151.000  Hub height [m]
   300.000  Grid height [m]
   600.000  Grid width [m]
     0.000  Vertical flow angle [degrees]
     0.000  Horizontal flow angle [degrees]


Meteorological Boundary Conditions:

    IECVKM  IEC von Karman spectral model
         1  IEC standard: IEC 61400-1 Ed. 2: 1999
    10.000  Percent turbulence intensity, IEC 61400-1 Ed. 2: 1999
       NTM  IEC Normal Turbulence Model
       N/A  IEC Extreme Turbulence Model (ETM) "c" parameter [m/s]
       PL   Wind profile type
   150.000  Reference height [m]
    10.000  Reference wind speed [m/s]
       N/A  Jet height [m]
     0.100  Power law exponent
     0.030  Surface roughness length [m]


Non-IEC Meteorological Boundary Conditions:

       N/A  Site latitude [degrees]
       N/A  Gradient Richardson number
       N/A  Friction or shear velocity [m/s]
       N/A  Mixing layer depth [m]
       N/A  Mean hub u'w' Reynolds stress
       N/A  Mean hub u'v' Reynolds stress
       N/A  Mean hub v'w' Reynolds stress


Spatial Coherence Models:

       IEC  u-component coherence model
       IEC  v-component coherence model
       IEC  w-component coherence model
(   12.000, 0.659E-03)  u-component coherence parameters
(   12.000, 0.659E-03)  v-component coherence parameters
(   12.000, 0.659E-03)  w-component coherence parameters
       N/A  Coherence exponent


You have requested that the following file(s) be generated:

   ./TurbulentWind_30WT/FOWTs/Wind\InflowWind_High_WT24.bts (AeroDyn/TurbSim full-field wind file)


Turbulence Simulation Scaling Parameter Summary:

   Turbulence model used                            =  IEC von Karman
   Turbulence characteristic                        =  User-specified
   IEC standard                                     =  IEC 61400-1 Ed. 2: 1999
   Mean wind speed at hub height                    =   10.007 m/s
   Characteristic value of standard deviation       =    1.001 m/s
   Turbulence scale                                 =   21.000 m
   Isotropic integral scale                         =   73.500 m
   Characteristic value of hub turbulence intensity =   10.000%
   Gradient Richardson number                       =    0.000

   Wind profile type                                =  Power law
   Power law exponent                               =    0.100
   Mean shear across rotor disk                     =    0.016 (m/s)/m
   Assumed rotor diameter                           =  300.000 m
   Surface roughness length                         =    0.030 m

   Nyquist frequency of turbulent wind field        =    5.000 Hz

   Number of time steps in the FFT                  =     2600
   Number of time steps output                      =     2600
   Number of points simulated                       =     1271


Mean Flow Angles:

   Vertical   =   0.0 degrees
   Horizontal =   0.0 degrees

Mean Wind Speed Profile:

   Height    Wind Speed   Horizontal Angle  Vertical Angle  U-comp (X)   V-comp (Y)   W-comp (Z)
     (m)        (m/s)         (degrees)       (degrees)       (m/s)        (m/s)        (m/s)   
   ------    ----------   ----------------  --------------  ----------   ----------   ----------
    301.0       10.72            0.00            0.00         10.72         0.00         0.00
    291.0       10.69            0.00            0.00         10.69         0.00         0.00
    281.0       10.65            0.00            0.00         10.65         0.00         0.00
    271.0       10.61            0.00            0.00         10.61         0.00         0.00
    261.0       10.57            0.00            0.00         10.57         0.00         0.00
    251.0       10.53            0.00            0.00         10.53         0.00         0.00
    241.0       10.49            0.00            0.00         10.49         0.00         0.00
    231.0       10.44            0.00            0.00         10.44         0.00         0.00
    221.0       10.40            0.00            0.00         10.40         0.00         0.00
    211.0       10.35            0.00            0.00         10.35         0.00         0.00
    201.0       10.30            0.00            0.00         10.30         0.00         0.00
    191.0       10.24            0.00            0.00         10.24         0.00         0.00
    181.0       10.19            0.00            0.00         10.19         0.00         0.00
    171.0       10.13            0.00            0.00         10.13         0.00         0.00
    161.0       10.07            0.00            0.00         10.07         0.00         0.00
    151.0       10.01            0.00            0.00         10.01         0.00         0.00
    141.0        9.94            0.00            0.00          9.94         0.00         0.00
    131.0        9.87            0.00            0.00          9.87         0.00         0.00
    121.0        9.79            0.00            0.00          9.79         0.00         0.00
    111.0        9.70            0.00            0.00          9.70         0.00         0.00
    101.0        9.61            0.00            0.00          9.61         0.00         0.00
     91.0        9.51            0.00            0.00          9.51         0.00         0.00
     81.0        9.40            0.00            0.00          9.40         0.00         0.00
     71.0        9.28            0.00            0.00          9.28         0.00         0.00
     61.0        9.14            0.00            0.00          9.14         0.00         0.00
     51.0        8.98            0.00            0.00          8.98         0.00         0.00
     41.0        8.78            0.00            0.00          8.78         0.00         0.00
     31.0        8.54            0.00            0.00          8.54         0.00         0.00
     21.0        8.22            0.00            0.00          8.22         0.00         0.00
     11.0        7.70            0.00            0.00          7.70         0.00         0.00
      1.0        6.06            0.00            0.00          6.06         0.00         0.00


Harvested Random Seeds after Generation of the Random Numbers:

   1824516952 Harvested seed # 1
   1971657505 Harvested seed # 2


Hub-Height Simulated Turbulence Statistical Summary:

   Type of Wind        Min (m/s)   Mean (m/s)    Max (m/s)  Sigma (m/s)       TI (%)
   ----------------    ---------   ----------    ---------  -----------       ------
   Longitudinal (u)         6.74        10.01        12.61        1.020       10.195
   Lateral (v)             -2.92        -0.00         3.27        0.957        9.566
   Vertical (w)            -3.14        -0.00         3.60        0.987        9.867
   U component              6.74        10.01        12.61        1.020       10.195
   V component             -2.92        -0.00         3.27        0.957        9.566
   W component             -3.14        -0.00         3.60        0.987        9.867
   Horizontal (U&V)         6.74        10.05        12.72        1.011       10.060
   Total                    6.76        10.10        12.75        1.002        9.914

                       Min Reynolds     Mean Reynolds    Max Reynolds    Correlation
   Product             Stress (m/s)^2   Stress (m/s)^2   Stress (m/s)^2  Coefficient
   ----------------    --------------   --------------   --------------  -----------
   u'w'                     -7.074            -0.231             3.775        -0.230
   u'v'                     -7.144            -0.228             3.578        -0.233
   v'w'                     -6.001             0.055             4.448         0.058


   Friction Velocity (Ustar)  =      0.481 m/s
   Maximum Instantaneous TKE  =      8.317 (m/s)^2
   Maximum Instantaneous CTKE =      3.745 (m/s)^2


Grid Point Variance Summary:

   Y-coord -300.00 -285.00 -270.00 -255.00 -240.00 -225.00 -210.00 -195.00 -180.00 -165.00 -150.00 -135.00 -120.00 -105.00  -90.00  -75.00  -60.00  -45.00  -30.00  -15.00    0.00   15.00   30.00   45.00   60.00   75.00   90.00  105.00  120.00  135.00  150.00  165.00  180.00  195.00  210.00  225.00  240.00  255.00  270.00  285.00  300.00

   Height   Standard deviation at grid points for the u component:
   301.00    0.916   1.040   0.900   1.005   0.981   0.875   0.921   1.081   1.152   1.007   0.989   0.956   0.955   0.927   0.967   1.043   0.911   0.965   1.029   1.070   0.993   0.911   0.901   0.935   0.960   0.990   0.943   0.808   0.903   0.793   0.850   0.920   0.900   0.881   0.930   0.937   0.956   0.957   0.952   0.875   0.875
   291.00    0.881   0.929   1.003   1.026   0.977   0.951   0.890   0.947   1.076   1.093   1.147   1.142   1.042   0.869   0.917   1.047   0.855   0.893   0.917   0.914   0.923   0.817   0.873   0.902   0.820   0.967   1.022   1.087   0.849   0.879   0.829   0.871   0.889   0.876   0.978   0.875   0.880   1.065   1.020   0.889   0.864
   281.00    0.916   0.914   0.968   1.050   1.153   1.009   0.970   0.935   1.005   1.098   1.046   1.134   1.111   0.933   0.995   1.037   0.985   1.027   0.967   1.018   0.929   0.828   0.791   0.831   0.784   0.966   1.019   0.973   0.910   0.966   0.906   0.976   0.932   0.995   1.084   0.976   1.019   1.049   1.023   0.915   0.884
   271.00    1.061   0.975   1.041   1.108   1.048   1.036   1.068   1.013   1.021   1.018   1.100   0.982   1.045   0.997   0.969   0.982   1.071   1.056   1.024   1.033   0.871   0.883   0.919   0.871   0.830   0.832   0.943   0.964   1.066   0.988   0.989   0.978   1.098   1.067   1.040   0.988   1.022   1.141   1.005   0.953   0.907
   261.00    1.024   1.010   1.037   1.040   1.066   1.131   1.087   0.988   1.016   1.085   1.093   1.024   1.019   0.994   0.987   1.056   1.112   0.992   0.969   0.981   0.907   0.908   0.773   0.905   0.954   0.912   0.944   0.944   0.999   0.982   1.114   0.992   1.006   1.159   1.059   0.954   1.071   1.090   1.060   0.951   0.906
   251.00    1.069   1.019   1.000   0.904   0.955   0.996   1.037   1.002   1.002   1.099   1.101   1.040   1.014   0.969   1.062   1.048   1.064   1.011   0.943   0.907   0.889   0.815   0.837   0.938   1.002   0.874   0.868   1.060   1.077   1.171   1.059   1.031   1.117   1.217   1.144   1.137   1.080   1.021   1.009   0.850   0.909
   241.00    1.078   1.084   0.983   0.955   0.866   0.886   1.043   1.004   0.939   1.062   1.080   1.050   1.159   1.089   1.055   0.912   1.069   1.030   1.007   0.842   0.880   0.833   0.944   1.042   0.982   0.893   0.988   1.002   1.133   1.098   1.082   1.022   1.217   1.206   1.171   1.106   1.125   1.029   0.892   0.895   0.921
   231.00    1.020   1.030   1.010   0.901   0.873   0.884   1.057   0.946   0.912   0.913   1.179   1.022   1.022   1.082   1.078   1.022   1.117   1.093   1.072   0.992   0.815   0.910   0.946   1.006   0.929   0.977   1.019   1.076   1.097   1.183   1.228   1.098   1.240   1.215   1.204   1.062   1.030   1.026   0.892   0.869   0.957
   221.00    0.960   0.987   0.932   1.062   0.962   0.882   0.908   0.957   0.998   1.088   1.148   1.129   1.026   1.083   0.989   1.091   1.103   1.038   0.930   0.966   0.963   0.890   0.929   0.911   0.927   0.940   1.018   0.977   1.141   1.059   1.192   1.161   1.229   1.140   1.216   1.087   0.928   0.979   0.869   0.921   0.971
   211.00    0.920   0.861   0.901   1.031   0.981   0.816   0.859   0.919   0.969   1.050   1.142   1.024   0.902   0.951   1.058   1.117   1.142   1.015   0.931   0.849   0.884   0.826   0.891   0.842   0.858   0.862   0.967   1.034   1.138   1.149   0.984   1.066   1.183   1.241   1.151   1.162   0.998   1.026   0.884   0.930   0.973
   201.00    0.874   0.826   0.830   0.932   0.950   0.779   0.809   0.790   0.897   1.005   1.044   0.886   0.899   1.040   1.058   1.148   1.086   0.924   1.009   0.874   0.926   0.926   0.823   0.749   0.770   0.815   0.931   1.096   1.125   1.155   1.083   1.086   1.177   1.210   1.174   1.056   1.002   1.042   0.761   0.955   0.923
   191.00    0.781   0.814   0.826   0.948   0.921   0.834   0.811   0.842   0.798   0.895   1.010   1.010   0.968   0.970   0.996   0.969   1.010   1.041   0.957   0.927   0.937   0.905   0.790   0.732   0.700   0.851   0.925   0.997   1.065   1.161   0.912   0.995   1.125   1.183   1.180   1.102   1.058   0.912   0.849   0.961   0.913
   181.00    0.927   0.894   0.875   1.079   0.882   0.908   0.873   0.865   0.835   0.915   0.935   0.975   0.830   0.939   0.911   0.877   0.960   1.117   1.050   0.891   0.864   0.875   0.826   0.815   0.779   0.845   0.925   1.077   0.993   1.051   0.993   1.029   1.188   1.387   1.164   1.103   1.027   1.066   0.969   0.959   1.015
   171.00    0.943   0.880   0.846   0.910   1.010   0.818   0.896   0.792   0.826   0.916   0.874   1.019   0.973   1.039   0.770   0.884   0.947   1.033   1.020   1.004   0.926   0.951   0.905   0.774   0.727   0.887   0.860   0.969   1.024   0.938   1.063   1.028   1.282   1.248   1.285   1.064   1.102   1.205   1.029   1.051   1.094
   161.00    0.916   0.974   0.852   0.940   0.927   0.873   0.864   0.864   0.885   0.867   0.858   1.003   0.967   0.905   0.802   0.890   0.985   1.012   0.990   0.878   0.957   0.923   0.921   0.786   0.777   0.840   0.924   1.091   0.986   1.021   1.185   1.155   1.287   1.234   1.195   0.946   1.116   1.184   1.023   1.054   1.062
   151.00    1.054   0.966   0.916   0.977   0.947   0.888   0.904   0.916   0.820   0.974   0.802   0.952   0.891   1.026   0.849   0.890   0.987   1.008   0.961   0.952   1.020   1.013   0.883   0.854   0.810   0.859   0.869   1.069   1.014   1.136   1.113   1.124   1.155   1.125   1.114   0.982   1.192   1.242   1.163   1.046   1.046
   141.00    1.046   0.932   1.016   0.982   0.824   0.894   0.951   1.015   0.881   0.900   0.929   0.936   0.838   1.024   0.954   0.924   0.858   0.972   0.849   1.024   0.954   0.977   0.824   0.911   0.859   0.861   1.071   1.132   1.089   0.998   1.107   1.195   1.227   1.015   1.083   0.920   1.147   1.163   1.105   1.153   1.163
   131.00    1.050   1.082   1.009   0.927   0.958   0.888   1.000   1.123   0.946   0.921   0.998   0.923   0.864   0.994   1.035   0.976   0.901   0.924   1.012   1.017   0.958   0.914   0.945   0.725   0.814   0.939   1.003   0.923   1.010   1.006   1.182   1.174   1.138   1.126   1.099   0.951   1.095   1.084   0.985   1.078   1.053
   121.00    0.983   1.048   0.967   1.010   0.983   0.953   1.013   1.012   0.870   0.916   1.081   1.088   0.925   0.897   0.927   0.780   0.936   1.032   1.072   1.056   1.163   0.947   0.888   0.928   0.878   1.021   1.111   0.994   0.916   0.931   1.089   1.172   1.257   1.234   1.062   1.027   1.122   1.041   1.058   1.051   0.980
   111.00    0.956   1.036   0.929   0.960   1.015   1.079   1.034   1.019   0.944   0.894   1.042   0.997   0.897   0.831   0.898   0.994   0.972   1.012   1.028   1.034   1.091   0.972   0.918   0.912   0.907   1.062   1.078   1.025   1.023   0.963   1.091   1.246   1.196   1.273   1.090   1.091   0.950   0.986   1.063   1.141   1.039
   101.00    0.921   0.915   0.963   0.995   1.115   1.121   0.934   0.904   0.919   0.880   1.045   1.030   0.909   0.907   1.073   1.007   1.091   0.951   0.878   0.948   0.995   0.972   0.867   0.940   1.032   1.038   1.084   0.975   0.978   0.833   1.051   1.198   1.269   1.178   1.082   1.062   0.938   0.915   0.954   1.019   0.918
    91.00    0.893   0.960   1.007   1.007   1.060   1.067   1.024   0.751   0.856   0.893   1.014   1.052   1.036   0.991   1.186   1.227   1.024   0.972   0.945   0.888   0.983   1.077   0.976   0.959   1.013   0.932   0.901   0.905   0.913   0.875   0.909   1.186   1.169   1.277   1.071   1.055   0.931   0.994   0.936   0.952   0.950
    81.00    0.831   0.961   1.006   1.016   1.050   0.997   0.970   0.868   0.913   0.809   0.945   1.030   0.985   1.173   1.106   1.181   0.978   0.954   0.914   0.902   0.972   1.033   1.149   0.976   0.891   0.868   0.719   0.822   0.836   0.885   1.003   1.092   1.061   1.118   1.070   1.007   1.066   0.937   0.954   0.891   0.952
    71.00    0.907   0.949   0.953   1.018   1.030   0.918   0.845   0.940   0.891   0.875   1.035   1.010   1.098   1.115   1.152   1.203   1.019   1.039   0.838   0.912   1.005   0.951   1.000   1.047   0.867   0.747   0.819   0.813   0.816   0.805   0.969   0.953   1.014   1.045   0.988   0.959   0.933   0.956   0.919   1.013   0.918
    61.00    0.960   0.918   0.973   0.916   0.884   0.926   0.818   0.935   0.983   1.020   1.061   1.079   1.052   1.051   1.066   1.070   1.041   1.046   0.914   0.836   0.920   0.993   0.966   0.948   0.818   0.818   0.853   0.846   0.908   0.912   0.885   1.057   1.009   0.981   1.010   0.942   0.939   1.036   0.964   0.991   0.919
    51.00    0.964   0.971   1.018   0.873   0.815   0.820   0.886   0.935   0.930   0.875   1.086   1.065   1.130   1.152   1.040   1.053   1.026   0.993   0.858   0.803   0.843   0.989   0.981   0.938   0.813   0.831   0.916   0.854   0.914   0.791   0.867   0.953   0.941   0.914   0.975   0.911   0.899   0.937   0.915   0.996   0.984
    41.00    0.908   0.960   0.926   0.902   0.839   0.743   0.875   0.905   0.807   0.761   0.906   1.054   1.138   1.052   1.010   0.903   0.956   0.967   0.844   0.762   0.827   0.890   0.940   0.912   0.882   0.873   0.960   0.867   0.882   0.896   0.836   0.904   0.883   0.961   0.855   1.039   0.925   0.911   0.938   0.996   0.986
    31.00    0.931   0.949   0.846   0.875   0.759   0.971   0.921   0.827   0.917   1.067   0.831   0.953   1.065   1.051   0.989   0.970   0.819   0.891   0.859   0.738   0.823   0.823   0.985   0.926   0.852   0.873   0.922   0.777   0.807   0.821   0.956   0.948   0.942   0.942   0.839   0.885   0.901   0.861   0.925   1.095   1.067
    21.00    0.933   0.942   0.894   0.900   0.876   0.913   0.940   0.787   0.890   1.015   1.022   0.985   0.961   0.983   0.975   0.858   0.947   0.947   0.878   0.763   0.820   0.907   0.996   0.989   0.981   0.909   0.859   0.845   0.852   0.965   0.936   0.991   0.863   0.936   0.877   0.828   0.900   0.902   1.019   1.102   1.016
    11.00    0.853   0.850   0.822   0.828   0.829   0.902   1.034   0.903   0.901   1.047   1.075   0.956   0.906   0.914   0.923   1.027   0.861   0.889   0.934   0.817   0.732   0.853   1.057   0.905   1.013   0.836   0.904   0.802   0.861   0.940   1.038   0.901   0.914   0.953   1.024   0.969   0.956   0.957   1.017   1.035   1.155
     1.00    0.963   0.853   0.899   0.785   0.795   0.917   0.986   0.938   0.934   1.000   1.022   0.901   0.880   0.970   1.018   0.904   0.960   0.899   0.958   0.860   0.861   0.890   0.971   0.889   1.031   0.889   0.879   0.858   0.918   0.969   0.974   0.916   1.010   0.921   0.952   0.961   0.901   0.942   0.971   1.010   1.052

   Height   Standard deviation at grid points for the v component:
   301.00    0.877   0.871   0.935   0.979   0.881   0.832   0.880   0.960   0.977   1.092   0.976   0.975   0.878   0.941   0.938   0.965   0.957   0.909   0.856   0.910   0.890   0.907   1.025   1.034   1.010   0.979   0.911   1.054   0.960   1.027   0.887   0.971   1.079   1.055   0.966   1.003   0.939   1.016   0.941   1.004   0.979
   291.00    0.824   0.784   0.939   0.921   0.851   0.866   0.853   0.986   1.013   1.021   1.006   1.009   0.997   0.927   0.890   0.977   0.843   0.980   0.918   0.897   1.005   0.925   1.039   0.992   0.933   1.045   0.948   0.993   0.999   1.034   0.992   1.014   1.045   0.999   0.881   1.031   1.036   1.014   0.971   1.030   1.058
   281.00    0.829   0.822   0.896   0.895   0.890   0.852   0.982   0.963   0.905   0.839   0.934   0.983   0.915   0.908   0.992   0.977   0.964   1.038   0.910   0.873   1.087   1.017   0.934   0.860   1.103   1.102   1.053   0.976   0.983   1.042   1.016   1.051   1.059   0.947   0.892   1.033   1.000   0.953   0.936   0.954   0.990
   271.00    0.847   0.866   0.880   0.840   0.889   0.972   1.039   0.985   0.975   0.903   0.868   0.934   1.052   0.918   1.091   1.130   0.974   1.010   0.942   0.949   1.138   1.000   0.965   1.001   1.098   1.172   0.984   1.052   0.985   1.033   0.990   1.024   0.961   0.951   0.933   1.033   0.971   0.971   0.964   0.990   1.021
   261.00    0.902   0.845   0.827   0.824   0.870   0.898   0.961   0.956   0.992   1.014   0.905   0.960   0.987   1.055   1.070   1.037   0.919   0.894   0.982   1.103   1.112   1.047   0.981   1.005   1.045   1.080   1.004   0.996   0.993   1.067   0.908   0.911   1.046   0.893   0.911   0.965   0.992   1.015   0.947   0.906   1.027
   251.00    0.854   1.002   0.960   0.872   0.849   0.867   0.907   0.943   1.054   0.976   0.913   0.932   0.999   1.006   1.074   1.049   1.017   0.940   0.929   0.932   0.998   1.053   1.104   1.122   0.999   1.071   0.904   0.965   0.978   0.967   0.877   0.868   1.001   0.985   1.044   1.010   1.042   0.879   0.915   0.995   1.028
   241.00    0.898   0.895   0.961   0.885   0.867   0.859   0.836   0.879   1.042   1.034   0.919   0.836   0.967   1.035   1.071   1.077   0.954   0.955   0.899   0.998   1.127   1.066   0.996   1.120   0.942   1.051   1.078   0.985   0.996   0.976   0.824   0.903   0.861   1.036   0.968   0.965   0.958   0.916   0.932   0.972   1.076
   231.00    0.871   0.875   0.884   0.930   0.932   0.957   0.881   0.926   0.974   0.952   0.945   0.926   0.879   1.045   0.949   0.943   1.044   0.886   0.802   0.960   1.101   1.048   1.083   1.093   1.039   1.092   1.106   0.980   0.912   1.031   0.941   0.877   0.900   0.964   1.022   0.942   0.961   0.940   0.870   0.969   1.036
   221.00    0.854   0.762   0.880   0.916   1.010   0.841   0.980   1.000   0.986   0.939   0.995   1.061   0.977   0.979   0.889   0.962   0.977   0.861   0.857   0.995   1.056   0.990   1.015   1.116   1.096   1.042   1.119   1.084   1.015   1.005   0.990   0.983   0.938   0.999   0.935   0.943   0.960   0.994   0.990   0.968   0.967
   211.00    0.889   0.832   0.833   0.923   0.985   0.927   1.021   0.953   0.894   1.037   0.910   0.914   1.072   0.906   0.847   0.999   0.938   0.963   0.959   0.982   0.937   0.962   1.091   1.106   1.007   1.110   1.122   1.053   0.966   0.905   0.885   0.853   0.931   1.005   1.065   0.965   1.027   0.923   1.065   1.043   0.921
   201.00    0.905   0.931   0.869   0.844   0.870   1.043   0.975   0.900   0.911   1.045   0.858   0.920   1.028   0.911   0.883   0.881   0.935   0.995   1.057   0.996   1.030   0.969   1.045   1.081   0.930   1.003   1.078   1.068   0.991   0.893   0.948   0.807   0.893   0.959   0.938   1.047   1.087   1.013   1.059   1.065   0.980
   191.00    0.881   0.989   0.954   0.994   0.925   1.025   0.989   0.907   0.964   1.058   0.881   0.933   0.986   0.931   0.889   0.813   0.823   0.911   0.967   1.057   0.994   1.147   1.138   1.073   1.038   1.062   1.024   1.064   0.975   0.910   0.902   0.903   0.867   0.961   0.984   1.015   1.066   0.990   1.142   1.135   1.161
   181.00    0.920   0.904   0.910   0.882   0.912   0.974   1.060   0.941   0.993   1.045   0.877   0.937   1.009   0.886   0.967   0.860   0.846   0.949   0.843   1.001   0.953   1.059   1.088   1.048   1.049   1.066   1.149   1.065   0.882   0.886   0.894   0.905   0.916   0.922   0.964   1.005   1.051   1.108   1.242   1.226   1.170
   171.00    0.902   0.928   0.985   0.980   0.960   1.059   0.981   0.948   0.947   0.981   0.979   0.966   1.089   1.041   0.950   0.896   0.885   0.953   0.937   0.901   1.002   0.954   1.001   0.913   1.006   1.007   1.032   1.132   0.937   0.834   0.846   0.900   0.934   0.890   0.989   0.975   1.092   1.071   1.193   1.215   1.100
   161.00    0.985   1.047   1.030   0.933   0.970   1.022   0.939   0.916   0.950   0.806   0.912   1.038   1.026   0.999   1.006   0.905   0.868   0.951   1.032   1.021   1.131   0.925   0.973   0.871   0.925   0.935   1.050   1.110   0.995   0.890   0.907   0.916   1.014   1.041   0.851   0.988   1.052   0.969   1.103   1.249   1.010
   151.00    0.976   0.956   0.897   0.914   0.974   0.914   0.912   0.972   0.937   0.894   0.952   0.919   0.997   1.006   1.001   0.890   0.831   0.850   0.996   1.035   0.957   0.965   0.957   0.852   0.908   0.857   0.989   1.073   1.043   0.997   0.964   0.914   1.003   1.001   0.817   0.912   0.972   1.005   1.060   1.138   1.039
   141.00    1.013   0.970   0.924   1.018   0.945   0.923   0.929   0.910   0.953   0.938   0.915   0.943   0.989   0.918   0.883   0.902   0.765   0.951   0.960   0.924   0.951   0.901   0.825   0.962   0.919   0.875   0.931   1.030   1.063   1.013   0.952   0.956   0.976   0.941   0.878   0.906   0.937   0.950   1.108   1.054   1.049
   131.00    0.958   1.054   0.948   0.929   1.003   0.881   0.910   0.913   0.952   0.964   0.918   0.926   0.955   1.028   0.900   0.890   0.862   0.946   0.976   0.946   0.885   0.908   0.857   0.906   0.916   0.840   0.836   0.950   0.955   0.946   0.929   0.944   0.922   1.029   0.947   0.862   0.946   0.985   1.057   1.027   1.001
   121.00    1.045   1.092   1.000   0.939   0.967   0.896   0.930   0.870   0.913   0.942   0.879   0.986   0.874   0.968   0.901   0.911   0.976   0.982   1.037   1.028   0.928   0.913   0.901   0.794   0.832   0.832   0.904   0.945   0.958   0.858   0.885   0.944   0.977   0.981   0.961   0.992   0.983   0.956   0.963   1.079   1.042
   111.00    1.204   1.079   1.073   0.931   0.893   0.907   0.924   0.946   0.883   0.891   0.773   0.818   0.880   0.872   0.923   1.012   1.006   0.951   1.014   0.961   0.839   0.930   0.894   0.914   0.858   0.927   0.863   0.958   1.012   0.942   1.009   1.037   0.905   0.916   0.916   0.942   0.988   1.000   0.975   1.088   1.075
   101.00    1.204   1.108   0.986   0.955   0.893   0.926   0.951   0.906   0.901   0.839   0.907   0.786   0.849   0.873   0.850   0.904   0.993   0.929   0.954   0.866   0.905   0.916   0.998   0.912   0.862   0.926   0.980   0.902   1.058   0.945   1.097   1.066   1.049   0.951   0.923   0.946   0.989   1.079   1.115   1.089   1.092
    91.00    1.116   1.059   0.971   1.009   0.970   0.880   0.864   0.980   1.098   1.004   0.915   0.814   0.939   0.965   0.863   0.929   0.987   0.821   0.936   0.884   0.949   0.974   0.988   0.893   0.855   0.864   0.881   1.007   1.048   0.973   1.071   1.042   0.995   1.044   0.852   0.968   0.920   0.936   1.096   1.072   1.085
    81.00    1.069   1.088   1.025   0.995   0.867   0.890   0.857   0.929   1.088   1.040   0.938   0.940   0.837   0.941   0.892   0.951   1.067   0.938   0.907   0.897   0.929   1.042   0.874   0.908   0.879   0.878   0.893   0.936   1.042   0.980   0.990   0.966   0.959   1.028   0.975   0.906   0.870   1.003   0.985   1.137   1.033
    71.00    1.192   1.246   1.140   1.111   0.901   0.803   0.874   1.018   0.996   0.974   0.854   0.875   0.839   0.869   0.994   1.005   1.018   1.005   0.939   0.939   0.936   1.001   0.862   0.986   0.975   0.920   0.883   0.895   0.909   0.941   0.904   1.104   1.019   1.002   1.002   0.883   0.862   0.911   0.885   1.002   0.979
    61.00    1.228   1.246   1.196   1.178   0.945   0.810   0.857   0.996   0.992   0.889   0.956   0.871   0.866   0.902   0.839   0.899   0.947   0.930   0.996   0.970   0.903   0.862   1.031   1.015   1.047   0.760   0.918   0.885   0.869   0.880   0.982   1.048   1.080   1.056   1.034   0.858   0.831   0.883   0.962   0.920   0.909
    51.00    1.256   1.271   1.272   1.080   0.992   0.883   0.915   0.986   0.847   0.937   1.004   0.966   0.916   0.837   0.868   0.863   0.917   0.965   0.973   0.937   0.900   0.885   0.960   1.064   0.951   0.835   1.037   0.958   0.903   0.909   0.853   0.961   1.013   1.064   1.018   0.853   0.894   0.903   0.913   1.035   0.881
    41.00    1.143   1.211   1.113   1.204   1.069   1.003   0.980   1.088   1.019   0.956   0.963   1.019   0.946   0.837   0.876   0.872   0.974   1.014   0.972   0.912   0.966   0.807   0.947   1.043   0.893   0.904   1.025   1.074   1.004   0.890   0.860   0.915   0.909   0.983   1.013   0.942   0.937   0.888   0.896   0.921   0.871
    31.00    1.079   1.175   1.116   1.110   1.134   1.141   1.084   1.121   1.053   0.960   0.955   0.948   0.929   0.868   0.897   0.942   1.011   1.013   1.040   1.000   0.966   0.933   0.931   1.067   1.083   0.957   1.034   1.002   1.027   0.947   0.884   0.953   0.933   0.923   0.995   0.948   0.920   0.924   0.832   0.898   0.853
    21.00    1.072   1.053   1.105   1.170   1.228   1.088   1.152   1.126   1.050   0.938   1.006   0.991   0.931   0.946   0.897   0.958   0.929   1.020   1.095   1.088   0.939   0.904   0.907   1.007   1.086   1.055   1.050   1.040   0.879   0.893   0.850   0.937   0.916   0.904   1.058   0.969   0.896   0.892   0.820   0.860   0.991
    11.00    1.072   1.044   1.195   1.066   1.038   1.054   1.120   1.085   1.037   0.927   1.020   1.005   0.996   0.998   0.942   0.952   0.930   1.068   1.085   1.044   1.025   1.015   0.943   0.961   0.987   0.984   1.038   1.093   0.926   0.864   0.876   1.017   1.010   0.977   0.923   1.009   0.939   0.880   0.840   0.918   1.033
     1.00    0.974   1.005   1.109   1.087   1.021   0.974   1.047   1.037   1.081   1.005   1.019   0.942   0.989   0.981   0.844   0.972   0.973   1.016   1.050   1.002   0.980   0.954   0.873   0.939   0.964   0.944   0.920   1.029   1.070   0.924   0.903   0.950   0.995   1.009   0.947   0.937   0.959   0.931   0.935   1.005   1.035

   Height   Standard deviation at grid points for the w component:
   301.00    0.964   0.894   1.093   1.059   1.041   1.041   1.000   1.073   0.988   0.934   0.896   0.962   0.924   0.882   0.845   0.798   0.836   0.895   0.858   1.004   0.954   0.898   0.922   0.871   0.909   1.088   1.080   0.983   1.035   0.990   0.909   0.971   0.973   0.934   0.952   0.990   1.013   1.063   1.119   1.099   0.941
   291.00    1.011   0.897   1.002   1.026   1.056   1.083   0.974   0.964   0.994   0.970   0.977   0.937   0.912   0.882   0.959   0.938   0.874   0.902   0.964   0.978   0.887   0.898   0.881   0.827   0.818   0.914   1.001   1.079   0.946   0.969   0.950   0.946   1.021   0.883   0.873   0.890   0.986   1.019   1.060   1.087   0.879
   281.00    1.032   0.873   0.940   1.000   0.958   1.094   1.034   0.934   1.001   0.953   0.923   0.898   0.870   0.816   0.924   0.944   0.842   0.831   0.915   0.902   0.861   0.892   0.900   0.840   0.867   0.801   0.892   0.970   0.917   1.090   1.028   1.052   1.041   0.906   0.929   0.892   1.008   1.026   1.033   1.049   0.985
   271.00    0.959   1.009   0.952   0.955   1.000   1.023   0.981   0.914   0.985   0.928   0.949   0.918   0.870   0.839   0.869   0.935   0.830   0.834   0.889   0.856   0.860   0.821   0.860   0.958   0.935   0.930   0.951   0.999   0.879   0.972   1.084   1.180   1.092   0.943   0.944   1.002   1.020   1.026   0.919   0.923   0.963
   261.00    0.935   0.986   0.994   0.890   1.078   1.016   0.930   0.940   0.906   0.863   0.913   0.919   0.842   0.845   0.802   0.849   0.817   0.799   0.877   0.896   0.899   0.874   0.983   0.962   0.905   0.921   0.888   0.912   0.972   0.960   1.041   1.035   0.953   0.890   0.965   0.942   0.980   1.000   0.972   1.058   1.037
   251.00    0.893   0.901   0.953   1.012   1.106   0.996   0.965   0.916   0.842   0.914   0.915   0.898   0.891   0.867   0.892   0.878   0.904   0.786   0.788   0.839   0.903   0.933   0.997   0.940   0.957   0.846   0.819   0.857   0.991   0.960   0.964   0.968   0.923   0.910   0.961   0.885   0.926   0.971   1.026   1.044   1.038
   241.00    0.920   0.920   0.860   0.960   0.945   0.939   0.928   0.874   0.917   0.964   0.901   0.934   0.988   0.881   1.012   0.929   0.955   0.991   0.852   0.819   0.939   0.963   1.041   0.904   0.926   0.865   0.914   0.895   0.923   0.948   0.968   0.961   0.874   0.932   0.879   0.804   0.837   0.945   0.963   1.005   1.002
   231.00    0.873   0.920   0.942   0.859   0.932   0.930   0.995   0.819   0.881   0.935   0.878   0.972   0.967   0.945   0.931   0.884   0.915   0.970   0.859   0.840   0.894   0.978   1.018   0.936   0.982   0.894   0.825   0.891   0.895   0.875   0.840   0.767   0.887   0.944   0.828   0.847   0.932   0.853   0.961   0.999   0.980
   221.00    0.931   0.892   0.889   0.962   0.891   0.921   0.907   0.882   0.894   0.977   0.884   0.960   1.005   0.962   0.952   0.952   1.041   0.853   0.823   0.910   0.867   0.900   0.971   0.970   1.051   0.901   0.963   0.897   0.892   0.826   0.823   0.883   0.845   0.919   0.854   0.853   0.891   0.951   0.958   0.964   0.999
   211.00    0.815   0.895   0.960   0.968   0.942   0.950   0.826   0.875   0.863   0.929   1.011   0.942   0.988   0.931   1.020   0.914   0.972   0.921   0.912   0.905   0.866   0.834   0.932   0.996   1.128   1.003   0.928   0.898   0.879   0.891   0.849   0.852   0.913   0.929   0.905   0.972   0.839   0.983   0.959   0.904   1.034
   201.00    0.928   0.864   0.905   0.931   0.938   0.883   0.900   0.893   0.937   1.121   1.022   1.060   0.963   0.925   1.003   0.929   0.872   0.997   1.012   0.971   1.004   0.888   0.963   1.082   1.085   1.071   1.054   0.924   0.906   0.899   0.902   0.847   0.909   0.903   0.980   0.998   0.928   0.989   0.998   0.868   0.932
   191.00    0.868   0.918   0.932   0.938   0.968   0.905   0.909   0.922   0.961   1.025   0.994   0.954   1.000   0.889   0.940   0.897   0.872   0.977   0.984   0.939   0.966   0.915   0.884   1.035   1.095   1.143   1.026   1.004   0.920   0.881   0.920   0.802   0.931   0.886   0.993   1.003   0.982   0.998   1.020   0.945   0.964
   181.00    0.862   0.846   0.893   0.961   0.840   0.910   0.911   0.997   1.070   1.022   0.971   0.976   1.032   0.990   0.867   0.908   0.830   0.917   0.965   0.965   0.908   0.944   0.791   0.858   0.937   1.111   1.089   1.094   0.977   0.954   0.900   0.987   0.970   0.956   1.006   1.008   0.913   1.013   0.974   0.965   0.946
   171.00    0.898   0.933   0.911   0.970   0.944   0.974   0.927   0.927   1.020   1.116   1.152   1.041   1.010   1.042   0.959   0.923   0.897   0.857   0.901   0.999   0.928   0.909   0.774   0.736   0.937   1.063   0.969   1.021   0.984   0.906   0.910   0.966   0.982   0.927   0.900   0.949   0.870   0.928   0.954   0.905   0.837
   161.00    0.887   0.934   0.946   0.931   0.894   0.888   0.997   1.038   0.907   0.977   1.061   1.011   1.103   1.063   0.989   0.955   1.056   0.907   0.894   0.957   0.958   0.980   0.828   0.855   0.913   1.027   0.971   1.012   0.991   1.076   0.909   0.900   0.895   0.906   0.877   0.825   0.857   0.961   0.965   0.905   0.927
   151.00    0.895   1.025   1.059   0.872   1.001   0.933   1.085   1.007   0.947   0.898   1.015   1.079   1.084   1.095   1.046   0.979   0.913   1.150   1.004   0.942   0.987   0.905   0.979   0.876   0.916   0.962   1.043   1.003   1.038   1.015   0.848   0.962   0.936   0.828   0.871   0.911   0.864   0.936   0.921   0.927   0.861
   141.00    0.918   0.955   0.967   0.899   0.850   0.945   1.101   1.044   0.884   1.022   1.042   0.981   0.962   1.018   0.971   0.921   0.932   1.056   1.058   1.001   0.941   0.900   0.917   0.920   0.918   1.028   0.976   0.964   0.957   0.916   0.991   1.050   0.976   0.896   0.866   0.873   0.927   0.923   0.960   0.921   0.843
   131.00    0.959   0.926   0.995   1.018   0.869   0.877   1.019   0.890   0.899   1.050   1.024   0.971   0.925   0.992   1.037   0.910   0.922   0.996   0.890   0.871   0.799   0.948   0.991   0.928   0.972   0.851   0.948   0.914   0.857   1.007   0.928   1.116   0.987   0.975   1.001   0.958   1.007   0.984   1.008   0.912   0.850
   121.00    0.940   1.055   1.008   1.048   0.910   0.855   0.910   0.881   0.971   1.049   0.876   1.081   0.954   0.952   0.987   0.842   0.893   0.899   0.893   0.829   0.877   0.939   0.841   0.945   0.937   0.862   0.933   0.956   0.957   1.044   1.068   1.210   0.934   0.977   0.969   0.929   0.914   1.042   1.025   1.031   0.937
   111.00    1.101   1.046   0.991   0.973   0.921   0.879   0.926   0.857   0.968   1.025   1.078   1.055   0.992   0.923   0.976   0.891   0.842   0.877   0.928   0.864   0.970   0.923   0.789   1.001   1.012   0.952   0.961   0.921   1.019   1.035   0.959   1.178   0.968   0.924   0.942   0.877   0.963   0.976   0.985   1.009   0.905
   101.00    0.962   0.965   0.990   1.018   0.983   0.882   0.934   0.938   0.950   1.091   0.998   0.969   0.990   1.036   1.034   0.929   0.833   0.896   0.887   0.844   0.912   0.925   0.827   0.956   0.997   0.947   0.968   0.944   0.985   0.984   1.060   1.136   1.157   0.903   0.873   0.907   0.898   0.941   0.969   0.955   0.900
    91.00    0.972   0.898   0.924   0.989   0.979   0.879   0.935   0.988   1.074   1.017   1.057   1.017   1.037   0.918   0.931   1.006   0.857   0.935   0.817   0.952   0.935   0.851   0.844   0.946   0.920   0.994   0.938   1.013   0.979   0.924   1.123   1.083   1.079   0.980   0.920   0.853   0.867   0.972   0.947   0.876   0.841
    81.00    0.973   1.001   0.918   0.846   0.854   0.857   0.967   1.062   1.084   1.064   1.043   1.032   1.039   0.982   1.006   0.973   0.953   0.945   0.828   0.939   0.850   0.884   0.907   0.949   0.915   1.057   0.974   1.009   1.021   1.025   1.146   1.103   1.024   0.891   0.960   0.935   0.958   0.986   0.971   0.869   0.828
    71.00    0.956   1.006   0.964   0.925   0.855   0.904   0.941   1.032   1.115   1.090   1.033   1.044   1.035   0.978   0.945   0.948   1.017   0.912   0.874   0.794   0.877   0.932   0.943   0.882   0.901   1.042   0.978   0.999   0.994   1.121   1.207   1.075   0.939   0.854   0.897   0.889   0.868   0.945   0.979   0.962   0.821
    61.00    0.958   0.963   0.939   0.909   0.951   0.966   0.978   1.038   1.058   1.087   0.992   1.040   0.947   0.976   0.911   0.891   0.975   0.966   0.845   0.857   0.928   0.902   0.914   0.936   0.974   0.994   0.996   0.994   1.101   1.114   1.117   1.051   0.841   0.841   0.955   0.907   0.824   0.901   0.983   0.959   0.896
    51.00    0.906   0.883   0.873   0.859   0.908   0.891   0.946   0.931   1.008   1.038   1.031   1.051   0.965   0.885   0.831   0.903   0.977   0.877   0.869   0.898   0.897   0.954   0.937   0.977   1.007   0.997   1.023   1.008   1.102   1.060   1.095   1.110   0.856   0.932   0.919   1.017   1.009   1.048   0.999   0.984   0.924
    41.00    0.892   0.894   0.855   0.883   0.799   0.850   0.898   0.869   0.922   0.988   1.095   1.042   0.959   0.955   0.898   0.904   0.950   1.067   1.052   1.015   0.902   0.924   0.927   1.130   0.991   0.899   1.024   1.008   1.018   1.083   1.114   1.082   0.921   0.960   0.953   0.956   1.017   1.073   0.987   0.911   0.962
    31.00    0.894   0.886   0.793   0.863   0.838   0.940   0.999   0.897   0.894   0.923   1.003   0.993   0.885   1.007   0.889   0.952   0.914   0.951   1.037   1.024   0.887   0.875   0.936   0.985   1.028   0.868   1.028   0.899   0.937   1.008   1.098   1.070   0.934   0.939   0.969   0.975   1.038   1.025   1.042   0.891   1.013
    21.00    0.825   0.897   0.829   0.795   0.893   0.912   1.015   0.982   0.901   0.961   0.925   1.053   0.928   0.968   0.870   0.966   0.934   1.002   1.029   1.003   1.032   0.937   0.966   1.057   1.020   1.059   1.027   0.930   0.954   1.009   1.031   1.039   0.995   1.044   0.909   0.984   1.098   1.167   1.059   0.998   0.931
    11.00    0.881   0.882   0.843   0.829   0.951   0.982   1.034   0.860   0.834   0.886   0.898   1.038   0.963   0.930   0.806   0.874   0.989   1.013   0.892   0.986   0.993   0.942   0.990   0.997   1.055   1.105   1.035   1.025   0.991   1.136   0.996   0.941   1.038   1.062   1.048   0.934   1.083   1.159   0.990   0.992   1.012
     1.00    0.974   0.994   0.910   0.912   0.898   0.909   0.917   0.806   0.848   0.847   1.010   0.973   0.981   0.848   0.898   0.901   0.982   1.007   1.008   0.930   1.041   0.970   1.035   0.999   0.998   1.007   0.981   0.992   1.011   1.018   1.073   1.020   1.059   0.996   1.054   0.972   1.111   1.133   1.085   1.063   1.066

   Mean standard deviation across all grid points:
      u component:    0.973 m/s
      v component:    0.969 m/s
      w component:    0.952 m/s


U-component (X) statistics from the interpolated hub point:

   Mean =  10.0066 m/s
   TI   =  10.1947 %


Processing complete.  13.547 CPU seconds used.
