
This summary file was generated by TurbSim (from OpenFAST-v3.4.1) on 25-Nov-2024 at 22:25:30.


Runtime Options:

      2036  Random seed #1
         0  Random seed #2
         F  Output binary HH turbulence parameters?
         F  Output formatted turbulence parameters?
         F  Output AeroDyn HH files?
         T  Output AeroDyn FF files?
         F  Output BLADED FF files?
         F  Output tower data?
         F  Output HAWC FF files?
         F  Output formatted FF files?
         T  Output coherent turbulence time step file?
 0 -  NONE  IEC turbulence models scaled to exact specified standard deviation


Turbine/Model Specifications:

        31  Vertical grid-point matrix dimension
        41  Horizontal grid-point matrix dimension
     0.100  Time step [seconds]
   200.000  Analysis time [seconds]
   200.000  Usable output time [seconds]
   151.000  Hub height [m]
   300.000  Grid height [m]
   600.000  Grid width [m]
     0.000  Vertical flow angle [degrees]
     0.000  Horizontal flow angle [degrees]


Meteorological Boundary Conditions:

    IECVKM  IEC von Karman spectral model
         1  IEC standard: IEC 61400-1 Ed. 2: 1999
    10.000  Percent turbulence intensity, IEC 61400-1 Ed. 2: 1999
       NTM  IEC Normal Turbulence Model
       N/A  IEC Extreme Turbulence Model (ETM) "c" parameter [m/s]
       PL   Wind profile type
   150.000  Reference height [m]
    10.000  Reference wind speed [m/s]
       N/A  Jet height [m]
     0.100  Power law exponent
     0.030  Surface roughness length [m]


Non-IEC Meteorological Boundary Conditions:

       N/A  Site latitude [degrees]
       N/A  Gradient Richardson number
       N/A  Friction or shear velocity [m/s]
       N/A  Mixing layer depth [m]
       N/A  Mean hub u'w' Reynolds stress
       N/A  Mean hub u'v' Reynolds stress
       N/A  Mean hub v'w' Reynolds stress


Spatial Coherence Models:

       IEC  u-component coherence model
       IEC  v-component coherence model
       IEC  w-component coherence model
(   12.000, 0.659E-03)  u-component coherence parameters
(   12.000, 0.659E-03)  v-component coherence parameters
(   12.000, 0.659E-03)  w-component coherence parameters
       N/A  Coherence exponent


You have requested that the following file(s) be generated:

   ./TurbulentWind_20WT/FOWTs/Wind\InflowWind_High_WT12.bts (AeroDyn/TurbSim full-field wind file)


Turbulence Simulation Scaling Parameter Summary:

   Turbulence model used                            =  IEC von Karman
   Turbulence characteristic                        =  User-specified
   IEC standard                                     =  IEC 61400-1 Ed. 2: 1999
   Mean wind speed at hub height                    =   10.007 m/s
   Characteristic value of standard deviation       =    1.001 m/s
   Turbulence scale                                 =   21.000 m
   Isotropic integral scale                         =   73.500 m
   Characteristic value of hub turbulence intensity =   10.000%
   Gradient Richardson number                       =    0.000

   Wind profile type                                =  Power law
   Power law exponent                               =    0.100
   Mean shear across rotor disk                     =    0.016 (m/s)/m
   Assumed rotor diameter                           =  300.000 m
   Surface roughness length                         =    0.030 m

   Nyquist frequency of turbulent wind field        =    5.000 Hz

   Number of time steps in the FFT                  =     2600
   Number of time steps output                      =     2600
   Number of points simulated                       =     1271


Mean Flow Angles:

   Vertical   =   0.0 degrees
   Horizontal =   0.0 degrees

Mean Wind Speed Profile:

   Height    Wind Speed   Horizontal Angle  Vertical Angle  U-comp (X)   V-comp (Y)   W-comp (Z)
     (m)        (m/s)         (degrees)       (degrees)       (m/s)        (m/s)        (m/s)   
   ------    ----------   ----------------  --------------  ----------   ----------   ----------
    301.0       10.72            0.00            0.00         10.72         0.00         0.00
    291.0       10.69            0.00            0.00         10.69         0.00         0.00
    281.0       10.65            0.00            0.00         10.65         0.00         0.00
    271.0       10.61            0.00            0.00         10.61         0.00         0.00
    261.0       10.57            0.00            0.00         10.57         0.00         0.00
    251.0       10.53            0.00            0.00         10.53         0.00         0.00
    241.0       10.49            0.00            0.00         10.49         0.00         0.00
    231.0       10.44            0.00            0.00         10.44         0.00         0.00
    221.0       10.40            0.00            0.00         10.40         0.00         0.00
    211.0       10.35            0.00            0.00         10.35         0.00         0.00
    201.0       10.30            0.00            0.00         10.30         0.00         0.00
    191.0       10.24            0.00            0.00         10.24         0.00         0.00
    181.0       10.19            0.00            0.00         10.19         0.00         0.00
    171.0       10.13            0.00            0.00         10.13         0.00         0.00
    161.0       10.07            0.00            0.00         10.07         0.00         0.00
    151.0       10.01            0.00            0.00         10.01         0.00         0.00
    141.0        9.94            0.00            0.00          9.94         0.00         0.00
    131.0        9.87            0.00            0.00          9.87         0.00         0.00
    121.0        9.79            0.00            0.00          9.79         0.00         0.00
    111.0        9.70            0.00            0.00          9.70         0.00         0.00
    101.0        9.61            0.00            0.00          9.61         0.00         0.00
     91.0        9.51            0.00            0.00          9.51         0.00         0.00
     81.0        9.40            0.00            0.00          9.40         0.00         0.00
     71.0        9.28            0.00            0.00          9.28         0.00         0.00
     61.0        9.14            0.00            0.00          9.14         0.00         0.00
     51.0        8.98            0.00            0.00          8.98         0.00         0.00
     41.0        8.78            0.00            0.00          8.78         0.00         0.00
     31.0        8.54            0.00            0.00          8.54         0.00         0.00
     21.0        8.22            0.00            0.00          8.22         0.00         0.00
     11.0        7.70            0.00            0.00          7.70         0.00         0.00
      1.0        6.06            0.00            0.00          6.06         0.00         0.00


Harvested Random Seeds after Generation of the Random Numbers:

   1914489715 Harvested seed # 1
   1971657505 Harvested seed # 2


Hub-Height Simulated Turbulence Statistical Summary:

   Type of Wind        Min (m/s)   Mean (m/s)    Max (m/s)  Sigma (m/s)       TI (%)
   ----------------    ---------   ----------    ---------  -----------       ------
   Longitudinal (u)         6.36        10.01        12.42        0.909        9.086
   Lateral (v)             -2.61         0.00         3.31        1.035       10.346
   Vertical (w)            -2.30         0.00         2.22        0.832        8.310
   U component              6.36        10.01        12.42        0.909        9.086
   V component             -2.61         0.00         3.31        1.035       10.346
   W component             -2.30         0.00         2.22        0.832        8.310
   Horizontal (U&V)         6.42        10.06        12.49        0.918        9.125
   Total                    6.44        10.09        12.55        0.916        9.075

                       Min Reynolds     Mean Reynolds    Max Reynolds    Correlation
   Product             Stress (m/s)^2   Stress (m/s)^2   Stress (m/s)^2  Coefficient
   ----------------    --------------   --------------   --------------  -----------
   u'w'                     -3.866            -0.046             3.536        -0.060
   u'v'                     -5.613             0.039             4.311         0.042
   v'w'                     -3.267             0.115             4.309         0.134


   Friction Velocity (Ustar)  =      0.214 m/s
   Maximum Instantaneous TKE  =      7.531 (m/s)^2
   Maximum Instantaneous CTKE =      3.049 (m/s)^2


Grid Point Variance Summary:

   Y-coord -300.00 -285.00 -270.00 -255.00 -240.00 -225.00 -210.00 -195.00 -180.00 -165.00 -150.00 -135.00 -120.00 -105.00  -90.00  -75.00  -60.00  -45.00  -30.00  -15.00    0.00   15.00   30.00   45.00   60.00   75.00   90.00  105.00  120.00  135.00  150.00  165.00  180.00  195.00  210.00  225.00  240.00  255.00  270.00  285.00  300.00

   Height   Standard deviation at grid points for the u component:
   301.00    1.007   0.984   1.024   1.025   1.014   0.987   1.052   0.918   0.829   0.945   0.831   0.804   0.800   0.853   0.908   0.974   1.015   0.981   0.826   0.955   1.095   0.935   1.008   0.901   0.833   0.803   0.841   0.824   0.975   1.023   0.980   1.006   0.919   0.942   0.948   0.961   0.954   0.974   0.888   0.908   0.858
   291.00    0.843   0.954   1.018   0.934   0.907   0.965   1.048   0.970   0.907   0.967   0.877   0.816   0.857   0.845   0.934   1.018   0.988   0.957   0.914   0.985   1.069   1.020   0.971   0.932   0.917   0.901   0.905   0.744   0.871   0.993   1.083   0.929   0.920   0.924   0.923   0.926   0.954   1.003   0.970   0.948   0.824
   281.00    0.901   0.997   1.085   0.987   1.019   0.941   0.948   0.948   0.829   0.860   0.933   0.929   0.926   0.965   1.007   1.028   0.824   0.798   0.922   0.999   1.011   0.962   0.937   0.793   0.912   0.858   0.837   0.714   0.892   0.941   0.952   0.920   0.930   0.909   0.852   0.892   0.970   1.060   0.953   0.886   0.829
   271.00    0.921   0.984   1.073   0.958   0.963   0.960   0.983   0.890   0.865   0.992   1.034   0.907   0.877   0.891   0.988   0.975   0.824   0.795   0.916   0.885   0.994   1.021   0.974   0.967   0.853   0.782   0.890   0.874   0.818   0.890   0.953   0.890   0.954   0.948   0.767   0.790   0.874   0.892   0.946   0.880   0.820
   261.00    0.957   1.089   0.952   1.044   0.924   0.917   0.929   0.924   0.938   1.074   0.955   1.012   0.937   0.985   0.952   0.997   1.016   0.929   0.844   0.971   0.996   0.972   0.879   0.893   0.886   0.803   0.820   0.875   0.904   0.944   0.919   0.953   0.996   0.909   0.727   0.793   0.834   0.941   0.894   0.881   0.800
   251.00    0.969   1.014   0.991   0.984   0.812   0.965   0.928   1.073   0.997   1.057   1.037   1.005   1.117   0.996   0.966   1.091   1.108   0.993   0.979   0.909   0.985   0.935   0.762   0.802   0.837   0.753   0.742   0.991   0.975   0.920   0.979   0.918   0.905   0.830   0.894   0.949   0.870   0.895   0.813   0.832   0.828
   241.00    0.944   0.917   1.061   0.954   0.936   0.984   0.955   1.085   1.123   1.106   1.066   1.119   1.046   1.001   0.890   0.919   0.978   1.104   0.995   0.913   0.999   0.892   0.906   0.849   0.942   0.803   0.880   1.047   0.976   0.935   0.861   0.831   0.869   0.888   0.850   0.895   0.909   0.862   0.856   0.839   0.899
   231.00    0.923   0.923   0.954   1.015   0.873   0.810   0.998   1.168   1.047   0.988   1.049   1.041   1.075   0.968   0.811   0.797   0.984   1.062   1.034   1.149   1.043   1.001   0.950   0.885   0.873   0.927   0.866   0.887   1.018   0.918   0.910   0.823   0.911   0.847   0.974   0.857   1.001   0.864   0.884   0.886   0.988
   221.00    0.889   0.922   0.931   0.874   1.062   0.967   0.999   1.049   1.063   0.857   0.932   0.930   1.003   0.989   0.916   0.871   0.996   1.013   1.066   1.171   0.978   0.874   0.924   0.891   0.824   0.931   0.785   0.883   0.962   1.025   0.921   0.843   0.917   0.866   0.953   0.958   1.008   0.902   0.837   0.931   0.951
   211.00    0.916   0.944   0.890   0.869   1.031   1.009   1.031   0.945   0.983   0.905   0.898   0.913   1.023   1.064   0.968   1.015   1.024   1.008   1.095   1.047   1.001   0.917   1.009   0.980   0.921   0.862   0.819   0.853   1.022   0.998   0.959   0.941   0.955   0.955   0.903   0.993   0.993   0.946   0.982   0.882   0.976
   201.00    0.865   0.915   0.881   0.982   0.912   0.901   0.941   0.900   0.959   0.911   0.952   0.904   0.990   1.068   0.988   1.035   0.989   1.019   1.003   0.916   0.907   0.888   0.996   1.012   0.867   0.925   0.981   0.901   1.092   0.989   0.867   0.975   1.021   0.936   0.941   0.987   0.900   0.909   0.910   0.952   0.906
   191.00    0.872   0.987   0.909   1.062   0.898   0.855   0.923   0.896   0.927   1.001   0.914   1.014   0.951   1.012   1.128   1.007   1.066   0.955   0.882   0.858   0.872   0.917   0.963   1.067   0.850   0.892   0.962   0.848   0.954   1.012   0.915   1.062   1.055   1.050   0.916   0.856   0.829   0.862   0.839   0.955   0.864
   181.00    0.914   0.928   0.971   1.062   0.951   0.923   0.974   0.914   0.897   1.025   0.870   0.980   0.940   1.056   1.093   1.100   0.928   1.015   0.933   0.908   0.905   0.955   0.976   1.019   0.981   0.898   0.849   0.931   0.992   1.016   0.878   0.955   0.982   0.997   0.928   0.844   0.864   0.780   0.880   0.853   0.942
   171.00    0.913   0.895   0.931   0.842   0.930   0.854   0.906   0.957   0.935   0.999   0.928   0.995   1.049   0.950   0.963   1.146   0.954   0.940   1.027   1.010   0.929   0.982   0.966   0.997   0.915   0.870   0.982   0.940   0.913   0.945   0.824   0.817   1.029   1.025   1.041   0.970   0.918   0.875   0.909   0.938   0.959
   161.00    0.928   0.874   0.877   0.947   1.059   0.886   0.927   0.886   0.892   0.953   0.975   0.920   0.983   1.045   1.012   1.076   1.104   1.034   1.004   0.969   0.991   0.962   1.003   1.035   0.874   0.954   0.871   0.952   0.962   0.956   0.892   0.883   0.918   1.013   1.063   0.976   0.954   0.882   0.990   0.988   0.923
   151.00    0.951   0.911   0.914   0.896   0.947   0.951   0.968   0.924   0.823   0.972   0.856   0.927   0.958   1.123   1.073   0.970   0.989   0.846   0.970   1.005   0.909   0.924   1.009   1.096   0.969   0.942   0.918   0.954   0.873   0.936   0.968   0.939   0.899   0.947   0.942   0.866   1.011   0.993   1.026   0.991   1.063
   141.00    1.018   1.015   0.871   0.931   0.939   0.975   0.985   0.970   0.871   0.934   0.918   0.871   1.007   1.006   0.921   0.911   0.907   0.988   0.974   0.977   0.898   0.965   1.018   1.089   1.044   0.989   0.840   0.833   0.847   0.825   0.950   0.880   0.930   0.915   0.896   0.969   1.000   1.016   1.011   0.990   0.967
   131.00    1.025   0.936   0.849   0.838   0.909   0.947   0.895   0.926   0.896   0.991   0.919   0.907   0.822   0.867   0.819   0.952   0.936   0.859   0.878   0.931   0.986   0.950   1.013   1.016   1.007   1.065   1.007   0.842   0.873   0.772   0.898   0.772   0.860   0.943   1.015   1.001   1.053   1.051   1.050   0.965   1.084
   121.00    0.952   0.901   0.831   0.750   0.789   0.879   0.828   0.844   0.886   0.952   0.954   0.911   0.784   0.778   0.738   0.866   0.941   0.994   0.907   0.956   0.910   0.943   1.029   0.936   0.946   1.053   0.925   0.987   0.794   0.745   0.826   0.820   0.866   0.897   0.950   0.868   1.037   1.022   1.033   1.117   0.951
   111.00    0.894   0.863   0.867   0.815   0.889   0.872   0.850   0.861   0.829   0.862   0.956   0.903   0.771   0.737   0.762   0.801   0.853   0.881   0.981   0.964   1.013   1.061   0.930   0.820   0.877   1.062   0.987   0.878   0.863   0.764   0.862   0.746   0.835   0.896   0.912   0.930   1.018   0.979   1.102   1.031   0.941
   101.00    0.801   0.933   0.822   0.817   0.836   0.865   0.760   0.796   0.800   0.851   0.963   0.888   0.908   0.780   0.818   0.801   0.872   0.768   1.031   1.035   0.968   0.971   0.882   1.023   0.948   1.073   0.979   1.024   0.775   0.890   0.891   0.804   0.931   0.937   0.925   0.947   0.903   0.932   0.914   0.931   0.897
    91.00    0.827   0.916   0.857   0.816   0.873   0.812   0.806   0.765   0.711   0.853   0.985   0.863   0.863   0.853   0.820   0.802   0.876   0.912   1.017   1.017   0.963   0.957   0.860   1.011   1.089   0.976   0.861   0.942   0.817   0.798   0.802   0.915   0.942   1.106   0.934   0.927   0.855   0.858   0.896   0.782   0.888
    81.00    0.833   0.930   0.866   0.755   0.845   0.841   0.752   0.713   0.699   0.837   0.963   0.901   0.854   0.845   0.846   0.799   0.881   0.951   0.899   0.929   0.947   0.953   0.884   0.978   1.055   0.991   0.777   0.880   0.992   0.879   0.840   0.892   1.021   1.057   0.955   0.817   0.782   0.846   0.933   0.929   0.944
    71.00    0.836   0.832   0.808   0.841   0.768   0.808   0.675   0.736   0.773   0.732   0.862   0.821   0.923   0.800   0.868   0.767   0.864   0.884   0.912   0.969   0.912   0.849   0.978   1.041   1.089   0.962   0.898   0.925   1.014   0.847   0.829   0.992   1.005   1.028   0.903   0.859   0.775   0.872   0.901   0.973   0.836
    61.00    0.831   0.849   0.847   0.831   0.820   0.767   0.772   0.852   0.760   0.796   0.815   0.782   0.868   0.810   0.856   0.849   0.981   0.874   1.018   0.889   0.865   0.935   1.013   1.072   1.009   0.944   1.009   0.941   0.957   0.802   0.790   0.963   0.940   0.965   0.881   0.886   0.911   0.764   0.897   0.921   0.896
    51.00    0.789   0.775   0.737   0.965   0.922   0.738   0.768   0.861   0.796   0.845   0.816   0.772   0.883   0.902   0.846   0.853   0.986   0.964   0.968   0.911   0.966   1.005   0.995   1.099   0.959   0.904   0.803   0.954   0.923   0.796   0.704   0.882   0.924   0.956   0.892   0.966   1.011   0.804   0.915   0.879   0.889
    41.00    0.794   0.800   0.875   1.061   0.944   0.882   0.895   0.852   0.831   0.831   0.799   0.811   0.845   0.890   0.839   0.857   0.940   0.953   0.860   0.900   1.012   0.990   0.922   1.017   0.912   0.963   0.851   0.900   0.924   0.892   0.861   0.848   0.833   0.844   0.970   1.012   0.849   0.883   0.917   0.772   0.899
    31.00    0.917   0.855   0.914   0.940   1.007   0.957   0.861   0.805   0.862   0.767   0.917   0.885   0.884   0.888   0.878   0.911   0.877   0.863   0.798   0.841   0.873   0.931   0.959   0.929   0.853   0.866   0.829   0.901   0.891   0.833   0.832   0.811   0.831   0.967   1.009   0.932   0.959   0.850   0.928   0.880   0.790
    21.00    0.899   0.835   0.909   0.947   0.948   0.889   0.795   0.785   0.795   0.918   0.760   0.918   0.873   0.797   0.825   0.910   0.949   0.920   0.993   0.783   0.950   0.983   0.851   0.901   0.879   0.870   0.938   0.939   0.913   0.837   0.854   0.828   0.869   0.971   0.862   0.873   0.863   0.797   0.882   0.842   0.836
    11.00    0.919   0.880   0.795   0.853   0.980   0.878   0.865   0.744   0.769   0.904   0.939   0.864   0.852   0.768   0.810   0.841   0.946   0.898   0.947   0.867   1.029   0.891   0.795   0.733   0.786   0.775   0.855   0.939   0.885   0.803   0.816   0.841   0.860   0.901   0.839   0.858   0.823   0.935   0.924   1.009   0.935
     1.00    0.963   0.824   0.810   0.770   0.892   0.838   0.858   0.778   0.822   0.896   0.927   1.003   0.821   0.833   0.836   0.911   0.832   0.902   0.992   0.872   0.965   0.886   0.883   0.776   0.753   0.806   0.855   0.779   0.937   0.758   0.895   0.888   0.872   0.864   0.830   0.867   0.949   0.956   1.033   1.112   0.960

   Height   Standard deviation at grid points for the v component:
   301.00    0.902   0.903   1.018   1.039   0.990   1.012   1.099   0.959   1.002   0.942   0.843   0.921   1.006   1.069   1.162   1.040   1.032   0.972   1.051   1.012   0.998   0.967   1.042   1.092   1.109   1.149   1.039   0.974   0.989   1.068   1.004   1.025   1.050   1.094   1.025   1.123   1.080   1.047   1.007   0.839   0.871
   291.00    0.940   0.955   0.876   1.039   1.018   0.904   0.984   0.978   0.998   0.844   0.896   0.831   1.004   1.052   1.080   1.034   1.019   0.951   1.008   0.959   1.002   0.923   1.051   1.032   1.134   1.080   1.048   1.060   1.030   1.092   1.031   1.036   1.098   1.171   0.990   1.108   1.229   0.972   0.983   0.857   0.891
   281.00    0.866   0.878   0.841   0.913   0.950   0.914   0.942   1.011   1.030   1.028   0.952   0.885   0.924   0.995   1.126   1.077   0.957   0.966   0.966   0.966   0.971   0.967   1.074   1.138   1.185   0.921   1.068   0.970   1.145   1.089   1.106   1.157   1.171   1.142   1.172   1.140   1.206   1.109   0.977   0.912   0.874
   271.00    0.854   0.898   0.948   0.888   0.956   1.013   1.025   1.117   0.954   0.951   0.988   0.958   1.007   0.932   1.040   1.066   0.986   1.037   0.987   1.001   0.974   0.953   1.043   1.042   1.160   1.072   1.105   1.021   1.092   1.114   1.163   1.159   1.095   1.079   1.126   1.064   1.210   1.092   1.049   0.984   0.893
   261.00    0.809   0.790   0.845   1.053   1.032   1.027   1.040   1.028   0.976   0.975   0.968   0.971   0.897   0.895   0.934   0.981   0.908   0.963   1.041   1.050   1.041   0.992   1.001   1.077   1.154   0.998   0.942   0.956   1.034   1.231   1.173   1.103   1.168   1.186   1.221   1.173   1.127   1.055   1.005   0.996   0.957
   251.00    0.948   0.838   0.893   1.018   1.000   1.033   1.012   0.945   0.924   0.931   0.934   0.903   0.914   0.823   0.844   0.928   0.913   1.008   1.021   0.974   1.027   1.008   0.984   1.081   1.142   1.029   1.036   1.047   1.084   1.262   1.088   1.101   1.229   1.095   1.062   1.101   1.204   1.036   1.035   1.104   0.951
   241.00    0.947   0.953   0.913   0.917   0.964   0.940   0.917   0.936   0.936   0.948   0.857   0.862   0.854   0.799   0.876   0.899   0.949   0.984   1.003   1.032   1.062   1.012   0.999   0.914   0.992   0.985   0.957   1.094   1.102   1.165   1.228   1.176   1.161   1.120   1.028   1.074   1.142   1.074   1.062   1.100   0.972
   231.00    1.036   0.950   0.881   0.909   0.893   0.898   0.872   0.815   0.890   0.924   0.912   0.867   0.932   0.841   0.899   0.861   0.883   0.939   0.969   1.055   1.051   0.995   1.003   0.850   0.899   0.932   0.891   1.006   1.113   1.189   1.216   1.139   1.208   1.063   0.987   1.009   1.052   1.073   1.077   1.107   1.061
   221.00    0.934   0.900   0.924   0.908   0.893   0.918   0.896   0.869   0.825   1.022   0.911   0.822   0.924   0.935   0.899   0.969   0.876   1.021   0.969   0.961   0.995   0.938   0.945   0.946   0.856   0.880   0.892   0.936   1.038   1.063   1.154   1.159   1.065   1.045   1.040   1.010   1.014   1.073   1.051   1.039   1.081
   211.00    0.889   0.825   0.981   1.024   1.009   0.983   0.952   0.878   0.936   0.971   0.983   0.800   0.847   0.985   0.959   0.884   0.944   0.989   1.131   0.957   0.977   1.047   0.868   0.921   0.905   0.877   0.866   0.868   0.953   1.000   1.090   1.121   1.164   1.027   0.987   0.951   0.896   1.026   1.184   1.074   1.153
   201.00    0.882   0.887   0.936   0.967   0.949   0.911   0.990   0.888   1.005   0.973   0.975   0.974   0.942   1.043   0.897   0.932   0.962   0.909   1.023   1.046   0.990   1.004   0.898   0.932   0.908   0.922   0.886   0.876   0.900   0.920   0.958   1.043   1.046   1.058   0.980   0.880   0.902   1.021   1.090   1.059   1.112
   191.00    0.979   1.012   0.884   0.951   0.957   0.910   0.883   0.932   0.948   1.000   1.067   0.962   1.007   1.058   1.024   1.016   0.953   0.966   1.055   0.988   1.004   1.066   0.860   0.972   1.007   0.963   0.917   0.855   1.001   0.985   1.036   0.928   0.942   0.950   0.952   0.799   0.873   0.859   0.998   1.006   1.072
   181.00    0.991   0.929   0.854   0.859   0.915   0.914   1.009   0.923   1.080   1.050   1.019   0.884   0.912   1.034   0.981   1.103   0.988   1.034   1.032   0.947   0.865   0.923   0.948   0.893   0.997   0.931   0.931   0.866   0.945   1.039   1.094   0.942   0.928   0.918   0.947   1.001   0.837   0.858   1.006   0.890   0.988
   171.00    1.034   1.002   0.911   1.016   1.015   0.999   0.903   0.973   1.044   1.010   1.029   0.871   0.933   0.961   0.959   0.974   1.106   1.051   1.048   1.112   1.003   0.886   1.058   0.931   1.024   1.018   0.902   0.797   0.968   0.972   1.008   0.888   0.934   0.930   0.926   0.919   0.910   0.866   0.948   0.945   0.921
   161.00    1.038   0.969   1.021   1.080   1.058   0.958   0.926   1.007   1.063   0.924   0.950   0.967   1.001   0.950   0.962   0.963   0.985   0.926   1.019   1.141   1.080   0.914   0.925   0.944   0.899   0.983   0.829   0.801   0.932   1.017   0.935   0.926   0.903   0.948   0.947   0.834   0.881   0.855   0.896   0.919   0.874
   151.00    0.994   0.920   0.999   0.966   0.909   0.916   0.918   0.943   0.995   0.875   0.894   0.994   0.987   1.056   0.992   0.951   0.981   0.985   1.089   1.055   1.035   0.942   0.998   0.989   0.991   0.991   0.932   0.907   0.931   0.927   0.836   0.901   0.845   0.841   0.968   0.813   0.881   0.892   0.996   1.035   0.958
   141.00    0.972   0.931   0.886   0.900   0.928   0.915   0.946   0.998   0.995   1.003   0.945   0.922   1.019   0.962   0.944   0.928   0.976   0.967   0.969   1.047   1.113   0.946   0.967   0.944   1.056   1.018   0.922   0.890   0.955   0.958   0.822   0.930   0.930   0.914   1.002   0.887   0.877   0.915   0.959   0.942   1.009
   131.00    0.961   0.961   0.963   0.897   0.956   1.036   0.995   1.005   0.925   0.908   0.971   0.951   0.991   0.982   0.991   0.903   1.029   1.012   0.938   1.006   1.046   0.999   1.053   1.001   1.063   0.980   0.878   0.917   0.923   0.872   0.947   0.881   0.853   0.916   0.926   0.898   0.757   0.858   1.023   1.120   1.008
   121.00    0.872   0.899   1.008   0.898   0.974   1.109   0.950   0.944   0.887   0.907   0.899   1.038   1.081   1.008   0.983   0.867   0.916   0.919   0.862   0.929   0.921   0.966   1.012   1.023   1.014   0.911   0.890   0.977   0.861   0.994   0.955   0.942   0.903   0.900   0.866   0.944   0.874   0.940   0.939   1.042   1.082
   111.00    0.818   0.909   0.931   0.878   1.028   1.131   0.990   1.005   0.946   0.915   1.010   0.985   1.078   1.050   0.983   0.885   0.989   0.942   1.016   0.940   0.992   0.996   1.005   1.066   1.062   0.999   1.001   0.920   0.853   0.960   0.996   0.917   0.877   0.948   0.904   0.897   0.879   0.942   1.010   1.003   1.110
   101.00    0.898   0.949   0.827   0.871   1.048   1.040   1.069   0.993   0.913   0.957   0.963   1.011   1.019   0.951   0.962   0.974   0.899   0.911   0.964   0.820   0.916   0.925   1.020   0.918   1.008   0.975   0.955   0.988   0.964   0.905   1.045   0.881   0.894   0.881   0.877   0.938   0.898   1.008   0.998   1.027   1.094
    91.00    0.880   1.050   1.005   0.943   1.037   1.114   1.019   1.016   0.932   0.951   0.992   0.982   0.963   0.883   0.929   0.951   0.854   0.838   0.819   0.836   0.948   1.070   0.937   0.830   0.994   0.963   0.949   0.950   0.990   0.987   1.046   0.986   0.862   0.893   0.850   0.852   0.826   0.921   0.981   0.947   0.964
    81.00    0.943   1.026   0.998   0.996   1.026   1.115   0.952   0.916   0.873   0.992   0.980   1.004   1.020   0.965   0.935   1.028   0.871   0.900   0.868   0.801   0.918   1.078   0.970   0.997   0.959   0.900   0.931   0.869   0.990   1.127   1.043   0.952   0.917   0.868   0.820   0.817   0.925   0.970   1.013   0.913   0.950
    71.00    0.925   1.016   0.960   1.004   0.916   0.913   0.922   0.896   0.852   0.902   0.983   0.971   0.941   0.970   1.036   0.926   0.953   0.887   0.792   0.814   0.921   1.037   0.986   0.892   0.965   0.814   0.942   0.963   1.052   1.105   1.042   0.992   0.933   0.781   0.806   0.773   0.872   0.933   0.940   0.920   0.806
    61.00    1.022   1.039   0.983   0.992   0.909   0.853   0.814   0.881   0.806   0.895   0.875   0.844   0.860   0.956   1.093   0.949   0.919   0.949   0.875   0.861   0.854   0.958   0.919   0.943   0.861   0.909   0.836   0.956   1.031   1.001   1.006   1.029   0.930   0.857   0.781   0.814   0.872   0.977   0.908   0.910   0.885
    51.00    0.937   0.957   1.057   0.991   0.937   0.903   0.819   0.875   0.865   0.857   0.815   0.940   0.863   0.935   0.905   1.023   1.059   0.970   1.007   0.884   0.838   1.009   0.942   0.923   0.860   0.832   0.889   0.891   0.964   0.920   0.919   0.962   0.865   0.950   0.859   0.789   0.868   0.969   0.936   0.964   1.005
    41.00    0.915   0.857   0.987   1.006   0.958   0.885   0.882   0.913   0.837   0.867   0.864   0.885   0.886   0.911   0.991   0.950   0.937   1.021   0.940   0.899   0.901   0.954   0.976   0.958   0.911   0.935   0.891   0.902   0.886   0.909   0.960   0.963   0.953   0.980   0.927   0.853   0.945   0.953   1.049   1.107   1.201
    31.00    0.970   0.908   0.879   0.939   0.936   0.862   0.872   0.862   0.875   0.889   0.834   0.884   0.906   0.844   0.893   0.953   0.878   0.993   0.864   0.866   0.874   0.921   0.906   0.926   0.969   0.921   0.903   0.991   1.000   1.023   0.899   0.905   0.940   1.013   1.028   0.914   1.031   1.027   1.089   1.021   1.189
    21.00    0.909   1.044   0.863   0.872   0.957   0.911   0.975   0.936   0.872   0.875   0.851   0.975   0.950   0.896   0.851   0.916   0.914   1.092   0.885   0.911   0.904   1.016   0.959   0.955   0.933   0.877   0.836   0.965   0.950   1.047   0.928   0.976   0.901   1.075   1.105   0.974   0.871   0.997   1.137   1.149   1.135
    11.00    0.996   1.104   1.003   0.817   0.987   0.926   0.986   1.073   0.998   0.957   0.780   0.954   0.940   0.997   0.874   0.848   0.896   1.002   0.902   0.975   0.982   0.887   0.890   0.979   0.916   0.906   0.985   0.953   0.981   1.009   0.858   0.844   0.896   1.068   1.042   1.096   0.982   1.031   1.061   1.042   1.058
     1.00    0.974   1.038   0.979   0.857   0.977   1.006   1.063   1.093   1.046   0.977   0.893   0.872   0.938   0.957   0.965   0.884   0.963   0.910   0.935   1.020   1.061   0.820   0.854   0.938   0.919   0.957   0.978   1.061   0.974   0.953   0.922   0.971   0.856   0.969   1.009   1.109   1.007   0.994   0.993   1.090   1.046

   Height   Standard deviation at grid points for the w component:
   301.00    0.902   0.939   0.837   0.875   0.882   0.840   0.864   0.874   0.815   0.934   0.970   0.951   1.086   1.214   1.186   1.075   1.086   1.048   1.104   0.999   1.058   1.003   1.099   1.182   1.032   1.083   1.133   0.973   0.954   1.089   1.006   0.945   1.049   0.982   0.946   0.995   1.074   1.027   0.983   0.977   0.891
   291.00    0.918   0.982   0.961   1.001   0.964   0.843   0.876   0.881   0.881   0.846   0.943   0.988   1.094   1.146   1.179   1.025   1.029   1.063   1.123   1.053   0.948   1.065   0.949   1.037   1.037   1.055   1.098   0.915   0.858   1.014   1.009   0.886   1.005   1.008   0.943   0.917   1.000   0.910   0.946   0.939   0.832
   281.00    0.887   0.992   1.016   1.046   0.944   0.874   0.827   0.898   0.879   0.905   0.927   0.972   0.971   1.013   1.170   1.061   1.021   1.036   0.988   1.011   0.985   1.023   1.087   1.051   1.056   1.042   0.977   0.962   0.826   0.912   0.969   1.012   1.050   0.949   1.027   0.980   1.005   0.835   0.896   0.984   0.853
   271.00    0.962   0.982   0.948   0.917   0.854   0.853   0.878   0.904   0.842   0.859   0.995   0.949   1.039   1.027   1.094   1.105   0.952   0.917   0.971   0.930   0.944   1.077   1.019   1.021   0.954   0.929   0.925   0.899   0.833   0.920   0.913   0.924   0.921   0.949   1.166   1.183   0.955   0.866   0.962   0.945   0.939
   261.00    0.929   0.912   0.877   0.947   0.897   0.888   0.866   0.873   0.846   0.943   0.959   1.010   1.150   1.030   1.000   1.042   0.975   0.955   0.926   0.902   1.003   1.084   1.015   1.034   0.974   1.051   0.924   0.873   0.878   0.874   0.955   0.868   0.890   0.929   1.145   1.207   1.136   0.932   0.962   0.900   0.921
   251.00    0.940   0.989   0.884   0.879   0.968   0.888   0.921   0.953   0.939   1.038   0.943   0.980   1.079   1.129   1.054   0.998   0.932   1.005   0.990   0.994   1.001   0.988   1.067   0.908   0.900   0.981   0.887   0.884   0.914   0.959   0.966   0.926   0.789   0.950   1.078   1.118   1.150   1.091   0.991   0.784   0.892
   241.00    0.927   0.947   0.968   0.944   0.837   0.889   0.871   0.975   0.915   0.987   0.929   0.881   0.988   1.113   1.137   0.933   0.897   1.040   0.994   0.962   0.912   1.010   1.016   0.923   0.898   0.896   0.881   0.864   0.942   0.939   0.924   0.915   0.880   0.914   1.009   1.138   1.125   1.111   1.031   0.823   0.855
   231.00    1.049   0.923   0.891   0.916   1.000   0.910   0.907   0.940   0.866   0.898   0.896   0.967   1.029   1.074   1.049   0.981   1.049   1.034   0.991   0.929   0.854   0.978   0.901   0.885   0.923   0.902   0.837   0.950   0.881   0.994   0.892   0.862   0.823   0.924   0.967   1.062   1.066   1.025   0.918   0.701   0.849
   221.00    0.988   0.890   0.997   0.985   1.080   1.016   0.883   0.876   0.953   0.890   0.954   1.039   0.945   0.953   0.985   1.058   1.035   0.918   1.029   0.995   0.994   0.938   0.865   0.926   0.885   0.885   0.990   1.062   0.948   0.895   0.981   0.883   0.897   0.957   0.935   0.936   1.047   1.078   0.879   0.864   0.970
   211.00    0.912   0.858   0.963   1.091   0.996   1.011   0.995   0.844   0.938   0.965   0.979   1.041   0.949   0.924   0.938   0.961   0.936   0.916   0.986   1.088   0.967   0.897   0.949   0.974   0.880   0.953   0.989   1.055   1.029   1.001   0.975   1.031   0.932   1.013   0.895   0.985   1.069   1.022   0.934   0.962   0.947
   201.00    0.864   0.904   0.985   1.017   0.941   0.939   0.946   0.921   0.885   1.007   0.988   0.906   0.842   0.841   0.921   0.924   0.948   0.998   0.907   1.033   0.911   0.866   0.879   0.971   0.970   0.940   0.951   0.983   0.972   1.076   1.112   0.998   1.003   0.984   0.872   0.815   1.016   1.095   1.037   0.907   0.956
   191.00    0.884   1.003   0.958   1.031   0.941   1.029   0.935   0.922   0.872   1.025   0.989   0.774   0.777   0.820   0.815   0.957   0.917   0.924   1.054   0.980   0.913   0.834   0.896   1.010   1.002   1.033   1.021   0.968   1.005   1.024   1.019   1.051   1.056   1.038   0.909   0.908   0.895   1.009   1.087   1.006   0.906
   181.00    0.815   0.915   0.985   0.958   0.911   1.018   0.980   0.955   0.910   0.931   0.920   0.817   0.934   0.831   0.876   0.968   0.875   0.883   0.976   0.925   0.853   0.881   0.949   0.942   1.090   1.077   1.084   1.002   1.069   1.062   0.943   0.962   1.009   0.947   0.912   0.871   0.824   0.999   1.080   0.950   0.920
   171.00    0.967   0.949   1.039   1.055   1.042   0.934   0.919   0.919   0.950   1.002   0.963   0.914   0.949   0.809   1.001   0.967   0.892   0.882   0.873   0.801   0.846   0.834   0.934   0.889   0.935   1.070   1.019   1.092   1.096   1.060   1.062   1.087   0.975   0.968   0.989   0.975   0.874   0.957   0.942   0.956   0.900
   161.00    1.055   1.013   1.016   0.967   1.063   0.955   0.952   0.920   0.825   0.950   0.936   0.962   0.907   0.915   0.905   0.922   0.900   0.910   0.832   0.916   0.917   0.877   0.906   0.961   1.092   1.015   1.089   1.066   0.979   1.031   0.988   1.019   0.939   1.028   0.935   0.979   0.917   0.980   0.921   0.883   0.949
   151.00    1.107   1.150   1.061   0.951   0.987   1.028   1.021   0.917   0.804   0.914   0.970   1.009   0.939   0.971   0.845   0.922   0.862   0.758   0.852   0.914   0.832   0.921   0.952   0.992   1.001   1.016   1.146   1.018   0.991   0.959   0.956   1.059   1.030   1.044   0.917   0.998   0.995   1.061   0.958   0.980   0.871
   141.00    1.101   1.083   1.133   0.981   0.927   0.969   0.934   0.856   0.850   0.906   0.967   0.990   1.019   0.900   0.818   0.885   0.932   0.892   0.911   0.930   0.853   0.964   0.910   0.977   1.024   0.979   1.053   0.993   0.949   0.985   1.030   1.032   1.081   0.958   0.975   1.017   1.064   0.920   1.089   1.026   0.937
   131.00    1.097   1.117   1.001   1.000   0.943   0.909   0.908   0.945   0.867   0.881   0.957   0.954   0.939   0.915   0.922   0.924   0.922   0.945   0.996   0.922   0.959   0.972   0.996   0.960   0.973   0.981   0.944   0.945   0.918   0.939   1.066   1.129   1.048   1.040   0.919   1.088   1.039   1.075   1.069   1.000   0.870
   121.00    1.077   1.201   1.035   1.152   1.073   1.070   0.969   0.921   0.872   0.926   0.811   0.997   0.901   0.776   0.908   0.928   1.014   1.033   0.970   0.770   0.862   0.985   0.940   0.941   0.990   0.835   0.834   0.969   0.969   0.935   1.117   1.175   0.965   0.992   1.015   1.095   1.146   1.034   1.060   1.010   0.846
   111.00    1.082   1.229   1.113   1.082   1.146   1.122   0.979   0.825   0.909   0.890   0.844   0.912   0.968   0.891   0.932   1.003   0.945   1.013   0.961   0.857   0.901   0.901   0.956   0.939   0.912   0.823   0.917   0.863   0.964   0.984   1.128   1.094   0.887   0.906   1.000   1.080   1.068   1.148   0.999   1.019   0.915
   101.00    1.030   1.167   1.200   1.053   1.056   1.069   1.000   1.008   0.894   0.858   0.781   0.850   0.861   0.926   1.005   1.013   1.049   1.018   0.921   0.784   0.910   0.912   0.861   0.811   0.901   0.958   0.955   0.968   0.988   1.020   1.129   1.080   0.889   0.906   0.960   1.060   1.058   1.095   1.009   1.050   0.992
    91.00    1.027   1.120   1.124   0.936   0.932   0.973   1.016   1.021   0.913   0.912   0.762   0.834   0.860   0.932   0.992   1.011   1.097   1.113   1.000   0.735   0.928   0.922   0.965   0.901   0.881   0.887   0.941   1.029   1.075   1.076   1.041   1.081   0.988   0.933   0.925   0.949   0.952   1.040   0.923   0.978   0.969
    81.00    1.036   1.122   1.076   0.960   0.938   0.988   1.048   0.972   0.985   1.002   0.862   0.863   0.921   0.799   0.959   0.972   1.025   1.060   1.096   0.889   0.876   0.868   0.944   0.946   0.945   0.912   0.956   0.982   0.999   1.038   1.139   1.074   1.015   1.009   0.856   0.981   0.943   0.964   0.896   0.939   1.031
    71.00    1.025   1.044   1.141   1.031   1.013   0.948   0.986   0.908   0.970   1.044   0.974   0.960   0.881   0.885   0.925   0.961   0.956   1.058   0.963   0.989   0.884   0.918   0.969   0.935   0.991   0.981   0.934   0.998   0.841   1.097   1.141   1.132   1.112   1.011   0.875   0.951   1.008   0.956   0.890   1.000   1.087
    61.00    1.034   0.942   1.074   0.970   0.967   0.924   1.042   1.078   1.073   1.027   1.022   0.996   0.851   0.941   0.937   0.926   0.954   1.047   0.959   0.947   1.030   0.992   0.961   0.964   0.928   1.020   1.050   0.891   0.850   0.992   1.085   1.169   0.990   1.022   0.984   0.969   0.986   1.078   0.971   0.955   1.074
    51.00    0.990   0.968   1.056   1.034   0.962   0.894   0.945   1.059   1.103   1.070   1.009   0.992   0.930   0.940   0.932   1.013   1.041   0.964   1.009   1.028   1.032   0.998   0.999   1.001   0.884   0.986   1.046   0.895   0.963   1.124   1.154   1.175   0.893   0.973   0.953   0.981   1.024   1.097   0.937   0.950   1.015
    41.00    0.978   1.056   1.024   1.074   1.019   1.065   1.018   1.099   1.037   1.035   1.025   1.011   1.081   0.872   0.892   0.995   1.001   0.882   0.911   0.986   0.946   0.943   0.979   0.884   0.919   0.964   0.936   0.985   0.989   1.056   1.121   1.121   1.023   0.926   0.942   0.868   0.982   1.022   0.942   0.979   0.938
    31.00    0.939   1.044   1.081   0.991   1.030   0.997   1.054   1.057   1.007   1.027   0.973   1.109   1.104   0.907   0.875   0.917   0.910   0.872   0.900   0.984   0.934   0.873   0.876   0.837   1.006   0.971   0.980   0.929   0.989   1.109   1.182   1.159   0.992   1.052   1.029   0.859   1.065   1.030   0.906   1.000   0.844
    21.00    0.914   1.001   1.066   0.978   1.045   1.008   1.070   1.014   1.055   1.003   1.106   1.134   1.038   0.969   0.903   0.916   0.973   1.005   0.936   0.967   1.007   0.991   0.903   0.796   0.968   0.952   1.001   0.982   0.929   1.118   1.139   1.121   1.020   1.006   0.990   1.009   1.033   0.966   0.978   0.959   1.020
    11.00    0.889   0.974   0.982   1.054   1.063   1.138   1.119   0.998   0.996   1.005   1.055   1.022   0.988   0.930   0.896   0.939   0.977   0.948   0.934   1.012   0.960   0.927   0.909   0.837   0.946   0.928   1.030   1.012   0.937   1.106   1.096   1.063   1.060   0.981   1.039   1.023   1.021   0.915   1.020   0.958   0.945
     1.00    0.974   0.969   0.990   1.023   1.056   1.173   1.132   1.022   1.023   0.995   1.057   0.968   0.989   0.897   0.900   0.954   1.055   1.088   0.969   0.981   0.953   0.953   0.865   0.889   0.838   0.840   0.968   0.981   1.076   1.040   1.068   1.161   1.061   1.094   1.103   0.902   0.949   0.971   1.011   0.946   0.894

   Mean standard deviation across all grid points:
      u component:    0.919 m/s
      v component:    0.967 m/s
      w component:    0.973 m/s


U-component (X) statistics from the interpolated hub point:

   Mean =  10.0066 m/s
   TI   =   9.0864 %


Processing complete.  9.7812 CPU seconds used.
