
This summary file was generated by TurbSim (from OpenFAST-v3.4.1) on 29-Nov-2024 at 15:51:13.


Runtime Options:

      2053  Random seed #1
         0  Random seed #2
         F  Output binary HH turbulence parameters?
         F  Output formatted turbulence parameters?
         F  Output AeroDyn HH files?
         T  Output AeroDyn FF files?
         F  Output BLADED FF files?
         F  Output tower data?
         F  Output HAWC FF files?
         F  Output formatted FF files?
         T  Output coherent turbulence time step file?
 0 -  NONE  IEC turbulence models scaled to exact specified standard deviation


Turbine/Model Specifications:

        31  Vertical grid-point matrix dimension
        41  Horizontal grid-point matrix dimension
     0.100  Time step [seconds]
   200.000  Analysis time [seconds]
   200.000  Usable output time [seconds]
   151.000  Hub height [m]
   300.000  Grid height [m]
   600.000  Grid width [m]
     0.000  Vertical flow angle [degrees]
     0.000  Horizontal flow angle [degrees]


Meteorological Boundary Conditions:

    IECVKM  IEC von Karman spectral model
         1  IEC standard: IEC 61400-1 Ed. 2: 1999
    10.000  Percent turbulence intensity, IEC 61400-1 Ed. 2: 1999
       NTM  IEC Normal Turbulence Model
       N/A  IEC Extreme Turbulence Model (ETM) "c" parameter [m/s]
       PL   Wind profile type
   150.000  Reference height [m]
    10.000  Reference wind speed [m/s]
       N/A  Jet height [m]
     0.100  Power law exponent
     0.030  Surface roughness length [m]


Non-IEC Meteorological Boundary Conditions:

       N/A  Site latitude [degrees]
       N/A  Gradient Richardson number
       N/A  Friction or shear velocity [m/s]
       N/A  Mixing layer depth [m]
       N/A  Mean hub u'w' Reynolds stress
       N/A  Mean hub u'v' Reynolds stress
       N/A  Mean hub v'w' Reynolds stress


Spatial Coherence Models:

       IEC  u-component coherence model
       IEC  v-component coherence model
       IEC  w-component coherence model
(   12.000, 0.659E-03)  u-component coherence parameters
(   12.000, 0.659E-03)  v-component coherence parameters
(   12.000, 0.659E-03)  w-component coherence parameters
       N/A  Coherence exponent


You have requested that the following file(s) be generated:

   ./TurbulentWind_30WT/FOWTs/Wind\InflowWind_High_WT29.bts (AeroDyn/TurbSim full-field wind file)


Turbulence Simulation Scaling Parameter Summary:

   Turbulence model used                            =  IEC von Karman
   Turbulence characteristic                        =  User-specified
   IEC standard                                     =  IEC 61400-1 Ed. 2: 1999
   Mean wind speed at hub height                    =   10.007 m/s
   Characteristic value of standard deviation       =    1.001 m/s
   Turbulence scale                                 =   21.000 m
   Isotropic integral scale                         =   73.500 m
   Characteristic value of hub turbulence intensity =   10.000%
   Gradient Richardson number                       =    0.000

   Wind profile type                                =  Power law
   Power law exponent                               =    0.100
   Mean shear across rotor disk                     =    0.016 (m/s)/m
   Assumed rotor diameter                           =  300.000 m
   Surface roughness length                         =    0.030 m

   Nyquist frequency of turbulent wind field        =    5.000 Hz

   Number of time steps in the FFT                  =     2600
   Number of time steps output                      =     2600
   Number of points simulated                       =     1271


Mean Flow Angles:

   Vertical   =   0.0 degrees
   Horizontal =   0.0 degrees

Mean Wind Speed Profile:

   Height    Wind Speed   Horizontal Angle  Vertical Angle  U-comp (X)   V-comp (Y)   W-comp (Z)
     (m)        (m/s)         (degrees)       (degrees)       (m/s)        (m/s)        (m/s)   
   ------    ----------   ----------------  --------------  ----------   ----------   ----------
    301.0       10.72            0.00            0.00         10.72         0.00         0.00
    291.0       10.69            0.00            0.00         10.69         0.00         0.00
    281.0       10.65            0.00            0.00         10.65         0.00         0.00
    271.0       10.61            0.00            0.00         10.61         0.00         0.00
    261.0       10.57            0.00            0.00         10.57         0.00         0.00
    251.0       10.53            0.00            0.00         10.53         0.00         0.00
    241.0       10.49            0.00            0.00         10.49         0.00         0.00
    231.0       10.44            0.00            0.00         10.44         0.00         0.00
    221.0       10.40            0.00            0.00         10.40         0.00         0.00
    211.0       10.35            0.00            0.00         10.35         0.00         0.00
    201.0       10.30            0.00            0.00         10.30         0.00         0.00
    191.0       10.24            0.00            0.00         10.24         0.00         0.00
    181.0       10.19            0.00            0.00         10.19         0.00         0.00
    171.0       10.13            0.00            0.00         10.13         0.00         0.00
    161.0       10.07            0.00            0.00         10.07         0.00         0.00
    151.0       10.01            0.00            0.00         10.01         0.00         0.00
    141.0        9.94            0.00            0.00          9.94         0.00         0.00
    131.0        9.87            0.00            0.00          9.87         0.00         0.00
    121.0        9.79            0.00            0.00          9.79         0.00         0.00
    111.0        9.70            0.00            0.00          9.70         0.00         0.00
    101.0        9.61            0.00            0.00          9.61         0.00         0.00
     91.0        9.51            0.00            0.00          9.51         0.00         0.00
     81.0        9.40            0.00            0.00          9.40         0.00         0.00
     71.0        9.28            0.00            0.00          9.28         0.00         0.00
     61.0        9.14            0.00            0.00          9.14         0.00         0.00
     51.0        8.98            0.00            0.00          8.98         0.00         0.00
     41.0        8.78            0.00            0.00          8.78         0.00         0.00
     31.0        8.54            0.00            0.00          8.54         0.00         0.00
     21.0        8.22            0.00            0.00          8.22         0.00         0.00
     11.0        7.70            0.00            0.00          7.70         0.00         0.00
      1.0        6.06            0.00            0.00          6.06         0.00         0.00


Harvested Random Seeds after Generation of the Random Numbers:

   1250157410 Harvested seed # 1
   1971657505 Harvested seed # 2


Hub-Height Simulated Turbulence Statistical Summary:

   Type of Wind        Min (m/s)   Mean (m/s)    Max (m/s)  Sigma (m/s)       TI (%)
   ----------------    ---------   ----------    ---------  -----------       ------
   Longitudinal (u)         7.45        10.01        12.38        0.823        8.220
   Lateral (v)             -2.64        -0.00         2.33        0.898        8.970
   Vertical (w)            -3.67         0.00         3.06        1.057       10.561
   U component              7.45        10.01        12.38        0.823        8.220
   V component             -2.64        -0.00         2.33        0.898        8.970
   W component             -3.67         0.00         3.06        1.057       10.561
   Horizontal (U&V)         7.49        10.05        12.39        0.821        8.167
   Total                    7.51        10.10        12.39        0.833        8.244

                       Min Reynolds     Mean Reynolds    Max Reynolds    Correlation
   Product             Stress (m/s)^2   Stress (m/s)^2   Stress (m/s)^2  Coefficient
   ----------------    --------------   --------------   --------------  -----------
   u'w'                     -4.852             0.001             3.452         0.001
   u'v'                     -3.415            -0.020             3.126        -0.027
   v'w'                     -3.592             0.174             5.229         0.183


   Friction Velocity (Ustar)  =      0.032 m/s
   Maximum Instantaneous TKE  =      7.366 (m/s)^2
   Maximum Instantaneous CTKE =      3.154 (m/s)^2


Grid Point Variance Summary:

   Y-coord -300.00 -285.00 -270.00 -255.00 -240.00 -225.00 -210.00 -195.00 -180.00 -165.00 -150.00 -135.00 -120.00 -105.00  -90.00  -75.00  -60.00  -45.00  -30.00  -15.00    0.00   15.00   30.00   45.00   60.00   75.00   90.00  105.00  120.00  135.00  150.00  165.00  180.00  195.00  210.00  225.00  240.00  255.00  270.00  285.00  300.00

   Height   Standard deviation at grid points for the u component:
   301.00    0.997   1.123   1.106   1.085   1.058   0.791   0.851   0.938   1.074   0.941   0.840   0.839   1.022   1.002   0.985   0.912   0.886   0.961   0.987   1.000   0.959   0.869   0.876   0.876   0.970   1.085   0.993   0.947   1.012   0.997   1.078   1.083   0.950   0.936   0.941   0.958   0.980   1.000   1.022   1.079   1.138
   291.00    0.948   1.071   1.198   1.046   0.964   0.867   0.814   0.905   1.034   0.893   0.884   0.964   1.018   1.086   0.950   0.935   0.824   0.947   0.981   0.967   1.054   0.944   0.910   0.876   0.988   1.085   0.964   0.932   0.993   0.939   1.008   0.967   0.989   0.942   0.998   0.990   1.004   0.916   0.881   1.044   1.117
   281.00    1.111   1.101   1.083   1.139   1.115   0.941   0.782   0.796   0.974   0.968   0.989   0.992   0.996   1.094   0.951   0.868   0.865   0.970   0.908   1.034   0.995   0.919   1.042   1.094   1.064   1.030   1.064   0.937   0.954   1.052   1.013   1.001   0.987   0.915   0.972   0.950   1.041   0.928   0.950   1.056   1.124
   271.00    1.009   1.091   1.092   1.114   0.997   0.969   0.786   0.847   1.026   0.920   0.979   0.921   1.037   1.016   0.859   0.944   0.820   0.960   0.932   1.129   1.090   1.118   1.028   1.112   1.162   1.118   1.037   1.086   1.005   1.006   1.043   0.977   0.974   0.913   0.971   0.956   0.973   0.946   0.976   1.009   1.028
   261.00    0.978   1.132   1.032   0.960   0.979   0.935   0.881   0.901   0.867   0.926   0.918   1.012   0.932   1.013   0.957   0.879   0.924   0.876   0.899   1.069   1.112   1.011   1.060   1.109   1.195   1.040   1.122   1.097   0.937   1.026   0.985   0.935   0.947   0.866   0.926   0.923   0.983   1.013   1.101   1.044   1.039
   251.00    0.944   1.119   1.050   0.808   0.916   0.946   0.902   0.883   0.951   0.933   1.032   1.029   1.128   0.944   1.038   0.865   0.968   0.955   0.978   1.179   1.024   1.039   0.982   0.970   1.130   1.147   1.155   1.118   0.974   0.995   0.974   0.868   0.903   0.940   0.933   1.046   0.992   1.108   1.061   0.980   1.014
   241.00    1.061   1.032   0.993   0.929   0.850   0.859   0.947   0.869   0.984   0.915   0.986   1.090   0.982   0.896   0.979   0.898   0.952   0.953   1.053   1.062   0.944   0.973   0.941   0.992   0.912   1.122   1.046   1.016   1.016   0.968   0.856   0.835   0.917   0.941   0.890   0.969   0.998   1.093   1.021   1.118   0.942
   231.00    0.978   0.995   0.918   0.886   0.926   0.885   1.001   1.014   1.105   1.083   0.982   1.049   0.957   0.841   0.968   0.891   0.911   1.018   1.097   0.952   0.996   0.979   0.895   0.891   1.034   1.176   1.059   1.109   1.078   1.024   0.966   0.975   0.944   0.898   0.800   0.967   0.998   1.054   1.107   1.113   1.068
   221.00    1.104   1.088   0.914   0.849   0.915   0.837   1.075   0.930   0.986   1.011   0.999   1.031   0.933   0.808   0.945   0.816   0.902   1.091   1.038   1.053   0.938   0.912   0.850   0.906   0.918   1.019   0.991   0.950   0.909   0.950   1.092   1.038   0.984   0.836   0.740   0.940   0.961   1.081   1.159   1.160   0.995
   211.00    1.087   1.084   0.876   0.867   0.896   0.915   1.028   0.994   0.919   0.918   1.085   0.978   0.984   0.788   0.844   0.837   0.872   0.914   0.991   0.931   0.902   0.858   0.881   0.903   0.828   0.893   0.902   0.797   0.834   0.896   0.979   1.072   0.819   0.814   0.812   0.861   0.982   1.105   1.129   1.094   1.022
   201.00    0.984   1.010   0.895   0.935   0.884   0.924   0.979   0.968   0.991   0.961   0.998   1.092   1.010   0.803   0.939   0.907   0.917   0.820   0.880   0.894   0.876   0.811   0.832   0.799   0.841   0.891   0.978   0.897   0.949   0.909   0.909   1.026   0.928   0.917   0.769   0.870   1.016   1.026   1.054   1.134   1.103
   191.00    0.934   0.924   0.882   0.879   0.911   0.909   1.003   1.042   0.989   1.001   1.054   1.071   0.991   0.848   0.992   1.041   0.950   0.893   0.818   0.828   0.802   0.840   0.794   0.779   0.884   0.856   1.042   0.917   0.979   0.895   0.944   0.994   0.957   0.872   0.812   0.789   0.917   1.003   0.978   1.050   1.084
   181.00    0.929   0.962   1.074   0.968   0.974   0.910   0.997   1.082   1.210   1.041   1.026   1.040   0.981   0.829   0.999   0.976   0.930   0.852   0.941   1.033   0.801   0.741   0.762   0.866   0.895   0.881   0.992   0.995   0.965   1.049   0.998   0.969   0.995   0.876   0.927   0.783   0.950   1.029   1.030   1.044   1.081
   171.00    0.996   1.002   0.991   1.075   0.871   0.961   1.010   1.031   1.159   1.096   0.875   1.043   1.006   1.080   1.050   1.041   0.906   0.873   0.929   1.013   0.827   0.820   0.765   0.937   0.911   0.819   0.912   0.861   0.909   0.981   0.947   0.947   0.988   0.953   0.928   0.915   0.998   1.096   0.969   1.081   1.051
   161.00    1.018   1.016   0.902   1.007   1.001   1.000   1.077   1.162   1.112   1.061   0.938   0.947   0.946   1.072   0.885   0.971   0.974   0.968   0.905   0.877   0.899   0.909   0.721   0.838   0.865   0.831   0.976   0.855   0.919   1.033   0.966   0.895   1.042   1.112   0.973   0.969   1.001   1.089   1.011   1.046   0.971
   151.00    1.046   0.874   1.038   1.123   1.089   0.983   0.936   1.042   1.079   1.055   0.915   0.940   1.013   1.008   0.869   0.961   0.832   0.869   0.829   0.796   0.823   0.881   0.672   0.841   0.902   0.831   0.920   1.003   0.875   0.950   0.951   0.880   0.876   1.083   0.941   0.919   0.942   1.185   1.137   1.067   0.933
   141.00    0.984   1.045   0.923   0.997   0.956   0.955   0.967   0.958   1.024   1.008   0.940   0.982   1.043   1.038   0.999   0.948   0.938   0.869   0.884   0.936   0.761   0.832   0.830   0.819   0.861   0.855   0.865   0.927   0.995   1.043   1.068   1.016   0.943   1.013   0.919   1.035   1.118   1.220   1.131   1.111   1.060
   131.00    0.977   1.031   0.871   0.865   0.895   0.956   0.941   0.953   1.010   0.997   1.008   0.952   1.084   1.088   0.957   0.977   0.852   0.966   0.789   0.804   0.870   0.953   0.910   0.741   0.951   0.936   0.791   0.839   1.045   1.077   1.072   1.031   1.024   0.997   1.118   1.137   1.115   1.238   1.313   1.182   1.141
   121.00    1.038   0.945   0.927   0.800   0.798   0.828   1.070   0.962   1.061   1.052   1.112   1.021   1.069   0.984   0.964   0.885   0.857   0.898   0.814   0.837   0.931   1.030   1.005   0.850   0.917   0.929   0.838   0.933   0.962   1.054   0.946   1.010   0.964   0.988   1.096   1.135   1.153   1.195   1.208   1.189   1.092
   111.00    1.054   1.006   0.917   0.915   0.915   1.007   1.003   0.940   0.899   1.075   1.044   1.053   1.036   0.988   0.987   0.881   0.936   0.853   0.841   0.813   0.876   0.910   0.912   0.830   0.878   0.916   0.909   0.976   0.958   1.064   1.031   0.976   0.877   0.922   1.121   1.191   1.115   1.102   1.042   1.173   1.132
   101.00    1.063   0.909   0.853   0.860   0.870   0.843   0.894   0.790   0.818   1.006   1.086   1.007   0.947   1.024   0.951   0.862   0.860   0.925   0.878   0.953   0.862   0.905   0.795   0.920   0.898   0.842   0.966   0.919   1.028   1.064   1.025   1.024   0.912   0.969   1.092   0.994   1.001   0.955   1.018   0.983   1.005
    91.00    1.099   0.937   0.847   0.814   0.887   0.799   0.825   0.883   0.862   0.936   1.127   1.143   0.994   0.939   0.895   0.815   0.868   0.927   0.865   0.873   0.798   0.794   0.820   0.924   0.923   0.841   0.904   0.950   1.030   0.952   1.030   0.978   0.891   1.061   1.042   1.050   1.199   0.951   0.968   0.939   0.911
    81.00    1.040   0.968   0.878   0.809   0.841   0.824   0.882   0.882   0.839   1.011   0.994   1.061   1.046   0.864   0.922   0.896   0.832   0.913   0.851   0.802   0.873   0.822   0.868   0.874   0.922   0.907   0.825   0.944   1.076   1.037   0.969   0.973   0.948   1.029   1.124   1.256   1.011   1.057   0.950   1.052   1.001
    71.00    1.096   0.969   0.885   0.882   0.866   0.826   0.827   0.884   0.932   1.029   1.077   0.993   1.033   1.037   0.991   0.898   0.814   0.974   0.819   0.805   0.878   0.884   0.912   0.948   1.006   1.041   0.984   0.843   1.202   1.033   1.007   0.910   0.990   1.136   1.156   1.106   1.137   0.945   0.958   0.983   0.992
    61.00    1.039   0.847   0.824   0.884   0.869   0.833   0.857   0.785   0.808   0.904   1.015   1.009   1.013   1.029   0.924   0.822   0.909   0.887   0.914   0.966   0.822   0.882   1.080   1.063   1.132   0.952   1.034   1.086   1.099   0.991   0.975   0.922   0.918   1.077   1.070   1.154   1.163   0.946   0.959   1.102   1.067
    51.00    1.089   0.866   0.873   0.868   0.918   0.753   0.815   0.841   0.683   0.818   1.018   0.915   0.931   1.063   0.985   0.918   1.011   0.970   0.795   0.875   0.822   0.832   1.024   1.053   1.026   0.995   1.088   1.093   1.085   0.989   0.872   1.000   0.939   1.068   1.112   1.188   1.162   1.036   1.066   1.106   1.015
    41.00    1.136   0.921   0.886   0.871   0.866   0.872   0.840   0.970   0.990   0.967   0.994   0.997   1.010   0.974   1.065   0.875   1.017   0.980   0.805   0.742   0.872   0.927   0.967   0.914   1.003   0.971   1.066   1.027   1.053   0.998   0.916   0.861   0.832   0.994   1.174   1.144   1.261   1.035   1.049   1.131   1.025
    31.00    1.109   0.855   0.867   0.853   0.968   1.005   0.961   0.878   0.940   0.905   1.019   0.969   1.000   1.051   0.981   0.951   1.008   0.910   0.892   0.865   0.861   0.817   0.845   0.857   1.039   0.933   1.073   0.935   1.034   1.035   0.854   0.959   1.000   1.110   1.206   1.313   1.202   1.119   1.024   1.125   0.983
    21.00    1.009   0.909   0.841   1.002   0.928   0.988   0.876   0.856   0.941   0.941   0.984   1.061   1.018   1.033   1.029   1.022   1.016   0.861   0.829   1.059   0.876   0.810   0.826   0.863   1.103   1.160   1.128   1.017   0.914   1.011   1.022   0.932   0.927   1.082   1.209   1.242   1.220   1.155   1.084   1.078   0.893
    11.00    0.979   0.920   1.002   0.988   0.850   0.780   0.913   0.865   0.938   0.904   1.050   1.005   1.082   0.983   0.933   0.906   0.894   0.881   0.962   1.052   0.865   0.690   0.835   0.871   1.055   1.027   1.153   0.918   1.037   1.071   1.006   0.873   1.126   1.077   1.164   1.164   1.203   1.070   1.026   1.035   1.032
     1.00    0.963   0.921   0.964   0.972   0.929   0.810   0.927   0.978   0.950   0.880   0.889   0.954   0.923   0.869   0.916   0.814   0.888   0.871   0.947   0.983   0.833   0.788   0.843   0.851   0.954   0.975   1.101   1.025   0.993   1.178   0.995   1.090   1.096   1.162   1.120   1.079   1.098   1.124   1.011   1.018   1.057

   Height   Standard deviation at grid points for the v component:
   301.00    1.079   1.036   0.996   1.010   0.983   0.953   0.974   0.941   1.113   1.024   0.958   0.915   1.038   0.976   0.939   1.028   0.984   0.977   1.018   0.939   0.970   0.994   0.980   0.848   0.988   1.062   1.121   1.103   0.974   1.035   0.971   0.896   0.995   0.897   0.936   0.858   0.977   0.985   0.961   0.862   0.886
   291.00    1.076   0.916   1.019   0.995   0.878   0.856   0.922   0.969   1.040   1.032   0.999   1.010   1.065   1.031   0.973   0.996   0.997   1.057   0.937   0.953   0.982   1.016   1.000   1.047   0.956   1.182   1.120   1.089   1.007   1.050   0.973   0.962   1.013   1.017   1.036   0.974   0.991   0.994   1.020   0.920   0.889
   281.00    1.089   1.082   0.982   1.063   0.896   0.904   0.838   0.870   0.934   1.005   0.985   0.878   0.941   1.031   1.048   0.949   1.060   1.003   1.049   1.001   1.019   1.056   1.086   1.017   1.009   1.055   1.121   1.135   1.037   1.085   1.089   1.044   1.011   0.981   1.030   1.032   0.963   1.054   1.046   0.945   1.015
   271.00    1.001   0.979   1.020   1.054   1.032   0.891   0.865   0.932   1.054   0.990   0.939   0.917   0.934   0.929   1.032   1.030   0.905   0.930   1.009   0.995   0.950   1.115   1.007   1.103   1.021   1.059   1.003   1.076   1.073   1.048   1.054   0.979   1.000   1.042   1.040   0.952   0.977   1.049   1.041   0.928   1.040
   261.00    0.978   0.940   0.942   0.998   1.006   0.965   0.929   1.000   1.021   1.016   1.000   0.941   0.865   0.834   0.898   0.919   0.935   0.999   1.079   0.973   0.911   1.041   1.172   1.043   1.006   0.958   1.070   1.051   1.048   1.050   0.980   1.006   1.024   0.942   0.929   0.937   1.085   1.150   1.093   1.028   0.963
   251.00    0.927   0.871   0.883   0.941   0.998   0.926   1.005   0.995   1.040   1.043   1.094   0.937   0.915   0.923   0.867   0.888   0.918   1.018   1.027   1.053   0.895   1.114   1.116   0.990   0.992   0.957   1.019   1.022   1.031   1.019   1.011   0.935   1.004   0.887   0.949   1.043   1.073   1.115   1.097   1.001   0.974
   241.00    0.868   0.883   0.913   0.938   0.896   0.957   1.083   1.009   1.138   1.038   1.096   0.962   1.030   0.907   0.975   0.945   0.908   0.927   0.968   1.005   1.002   1.123   0.940   0.978   0.970   0.833   0.974   0.976   1.018   0.954   0.897   0.971   0.933   0.936   0.979   0.986   1.141   1.066   1.074   1.030   0.931
   231.00    0.873   0.906   0.857   0.907   0.979   1.015   1.027   1.081   1.027   1.098   0.980   0.966   1.039   1.051   0.996   1.012   0.888   0.982   0.935   1.043   1.058   1.129   0.978   0.889   0.914   0.880   0.879   1.013   0.885   0.883   0.894   0.960   0.823   0.905   0.886   1.070   1.062   1.109   0.960   0.953   0.917
   221.00    0.834   0.818   0.900   0.917   0.983   1.013   1.130   1.084   1.020   1.072   1.136   1.078   1.067   1.089   0.996   0.940   0.960   0.915   0.872   0.928   1.026   1.050   1.017   0.932   0.877   1.016   0.870   0.912   0.895   0.929   0.917   0.907   0.871   0.944   0.994   1.027   1.080   1.115   1.079   0.951   0.900
   211.00    0.883   0.894   0.867   0.902   0.951   0.980   1.064   1.168   1.011   1.021   1.108   1.068   1.032   1.051   0.917   0.987   0.906   0.910   0.944   0.915   0.948   1.092   0.983   1.043   0.922   0.946   0.898   0.946   0.857   0.909   0.947   0.934   0.954   0.992   0.996   1.027   1.055   1.109   1.070   0.900   0.920
   201.00    1.054   0.944   0.839   0.926   0.908   0.981   1.112   1.132   0.991   1.013   1.066   1.000   1.000   1.052   0.890   0.955   0.876   0.963   0.959   0.817   0.903   0.967   1.048   1.089   1.082   0.944   0.918   0.957   0.902   0.804   0.823   0.953   0.953   1.049   1.093   0.999   0.961   1.078   1.014   1.011   0.988
   191.00    1.082   0.998   0.897   0.888   0.916   1.017   1.126   1.096   1.126   1.057   1.020   1.050   1.044   0.958   0.989   0.948   0.897   0.949   0.956   0.886   0.908   0.975   1.048   1.033   0.951   0.888   0.905   0.906   0.798   0.871   0.838   0.821   0.878   0.975   0.951   0.923   0.947   1.020   0.916   0.861   0.942
   181.00    1.076   1.120   0.979   1.026   1.017   0.977   1.102   1.158   1.011   1.128   1.055   1.091   0.988   0.925   0.968   0.893   0.873   0.913   0.896   0.847   0.857   0.941   0.942   0.913   0.919   0.878   0.883   0.922   0.818   0.853   0.835   0.912   0.863   1.027   1.065   1.021   1.031   0.968   0.977   0.835   0.850
   171.00    1.127   1.101   0.945   0.917   1.015   1.036   1.069   1.046   1.140   1.167   1.089   1.018   0.964   0.971   1.097   0.919   0.889   0.938   0.860   0.865   0.862   0.841   0.918   0.932   0.925   0.928   0.938   0.852   0.872   0.924   0.882   0.988   0.888   1.012   1.055   0.965   0.953   0.992   1.003   0.889   0.912
   161.00    1.058   0.955   0.875   0.926   0.932   0.981   1.067   1.054   1.063   1.078   0.914   1.022   0.955   1.071   1.032   0.914   0.931   0.956   0.924   0.898   0.879   0.878   0.855   1.021   1.057   0.959   0.927   0.829   0.866   0.948   0.836   1.052   0.972   0.952   1.044   0.927   0.989   1.027   0.971   0.971   1.018
   151.00    1.060   0.923   0.871   0.969   1.002   1.006   1.048   0.977   1.035   1.055   1.032   0.995   0.988   1.100   1.069   0.968   0.943   0.891   0.895   0.846   0.898   0.867   0.924   1.067   0.987   1.018   0.980   0.799   0.893   0.840   0.933   0.988   1.042   0.981   0.926   0.942   0.995   1.011   1.013   0.959   0.888
   141.00    1.003   1.053   0.996   0.969   0.968   0.914   1.003   1.026   0.920   1.047   1.070   0.986   0.952   1.055   1.016   0.974   0.915   0.968   0.902   0.900   0.915   1.062   1.074   1.099   1.013   1.127   0.960   0.905   0.887   0.910   0.961   1.068   1.004   0.972   0.960   0.863   1.017   1.034   1.076   1.065   1.015
   131.00    0.955   1.071   1.096   1.065   0.953   0.926   1.005   0.959   1.025   1.110   1.067   0.983   0.969   0.932   1.023   0.994   0.939   0.871   0.863   0.962   0.985   0.959   1.008   1.105   1.063   1.066   0.956   0.867   0.896   0.902   0.937   0.963   0.977   0.923   0.942   0.948   1.125   0.977   1.011   1.046   1.051
   121.00    1.059   1.079   1.000   1.022   0.971   0.981   0.972   0.919   1.006   1.022   1.053   0.949   1.069   1.001   1.024   1.059   1.018   0.902   0.911   0.919   0.853   0.944   0.906   0.973   1.014   1.007   0.832   0.829   0.876   0.951   0.927   0.936   0.948   0.933   0.883   0.921   1.038   0.994   0.980   1.055   1.076
   111.00    0.873   1.010   1.023   1.110   1.024   1.025   0.943   0.923   0.898   1.147   1.117   1.071   1.079   1.034   1.056   0.978   0.950   0.917   0.834   1.005   0.878   0.940   0.795   0.874   0.941   0.959   0.900   0.859   0.916   0.906   0.951   0.925   0.893   0.917   0.897   0.933   1.047   0.983   0.904   1.018   1.068
   101.00    0.940   0.946   1.052   1.108   1.068   1.045   0.894   0.922   1.007   1.113   1.079   1.084   1.007   1.027   1.083   0.900   0.881   0.909   0.957   0.970   0.937   0.912   0.870   0.938   0.941   0.940   0.854   0.826   0.885   0.990   1.004   1.022   1.026   0.905   0.908   0.939   0.903   0.947   0.935   1.017   1.027
    91.00    0.907   0.894   1.052   1.084   1.096   1.021   0.953   0.830   0.833   0.940   1.036   1.042   1.012   1.075   1.083   0.879   0.856   0.898   1.022   0.983   1.061   0.925   0.964   0.908   0.969   0.970   0.899   0.851   0.917   0.888   0.920   0.932   0.870   0.912   0.957   1.098   0.936   0.904   1.003   1.032   0.933
    81.00    0.914   0.980   0.942   1.170   1.125   1.048   0.933   0.742   0.778   0.873   0.971   1.024   0.979   1.016   0.992   0.896   0.871   0.941   0.949   0.914   0.999   0.973   0.909   0.962   0.945   0.932   0.891   0.914   0.957   0.852   0.847   0.852   0.809   0.944   0.882   1.012   0.991   0.975   1.048   0.904   1.001
    71.00    0.962   0.893   1.081   1.048   1.107   0.994   0.951   0.890   0.882   0.857   0.959   0.945   1.001   0.951   0.862   0.965   0.985   0.927   0.981   0.947   0.916   0.940   0.964   0.939   0.874   0.861   0.809   0.913   0.942   0.924   0.768   0.812   0.807   0.871   0.934   0.946   0.984   1.055   0.944   0.985   1.050
    61.00    0.922   1.037   1.014   1.115   0.997   0.956   0.980   0.824   1.002   0.849   0.910   0.975   1.008   0.924   0.884   0.962   1.049   0.982   0.892   0.954   0.925   0.893   1.002   0.973   0.967   0.868   0.837   0.841   0.902   0.817   0.836   0.952   0.950   0.938   0.920   0.887   0.880   1.010   0.982   0.994   0.987
    51.00    1.116   1.036   0.949   1.070   1.052   0.946   0.988   0.873   0.896   0.931   0.961   0.950   1.057   1.007   0.908   0.970   1.014   0.970   0.989   0.926   0.863   0.984   0.845   1.008   1.077   0.873   0.914   0.828   0.893   0.915   0.880   0.945   0.938   0.918   0.891   0.907   0.958   1.060   1.016   0.906   0.983
    41.00    1.121   1.071   0.938   0.995   1.009   0.991   0.937   0.853   0.885   0.974   0.974   1.003   1.037   0.954   0.956   0.903   0.982   1.000   1.012   0.858   0.909   0.926   0.878   0.959   0.940   0.913   0.941   0.933   0.971   0.878   0.845   0.935   0.855   0.865   0.817   0.948   1.003   1.053   0.972   0.932   0.872
    31.00    1.152   1.142   1.080   0.983   1.043   1.012   0.981   1.025   0.889   0.907   0.986   0.957   1.016   0.949   0.938   0.802   0.955   0.999   0.928   0.904   0.877   0.994   0.796   0.901   0.878   0.902   0.866   1.006   0.976   0.912   0.912   0.965   0.874   0.806   0.911   0.970   1.036   1.047   1.024   0.987   0.958
    21.00    1.050   1.036   1.049   0.980   0.946   1.031   0.973   1.003   0.889   0.893   0.944   1.002   0.973   0.852   0.868   0.862   0.940   0.988   1.008   0.977   1.019   0.983   0.838   0.900   0.941   0.914   0.883   0.931   1.000   0.997   1.047   1.035   0.992   0.806   0.909   0.944   1.042   1.033   1.077   1.041   0.985
    11.00    1.030   1.001   0.970   0.886   0.876   0.979   0.914   0.962   0.936   0.922   0.979   0.966   0.936   0.868   0.861   0.926   0.998   0.954   0.943   0.846   1.051   1.087   0.956   0.929   0.947   0.981   0.990   0.998   1.040   0.989   0.901   0.983   1.039   0.959   0.906   0.932   0.958   1.020   1.012   1.021   0.928
     1.00    0.974   0.971   0.961   0.987   0.962   0.859   0.953   0.960   0.991   0.969   1.026   0.998   0.920   0.908   0.876   0.972   0.991   0.901   0.915   1.039   1.068   0.996   1.027   1.001   1.036   0.971   0.998   0.904   0.995   1.043   0.920   0.917   1.003   0.933   0.964   0.970   0.884   1.081   1.094   1.033   0.929

   Height   Standard deviation at grid points for the w component:
   301.00    0.939   1.072   1.066   1.020   0.927   0.974   0.938   0.857   0.938   0.935   0.942   0.935   0.929   1.024   1.144   1.022   0.901   0.931   1.002   0.962   0.949   0.936   1.058   0.957   0.946   0.898   0.950   0.859   0.920   1.020   0.930   0.846   0.856   0.899   0.915   0.877   0.875   0.900   0.895   0.910   1.007
   291.00    0.936   1.011   0.965   0.914   0.941   0.946   0.910   0.839   0.969   0.946   0.996   0.945   0.949   1.019   1.038   1.060   1.001   0.898   0.946   0.930   0.877   0.864   1.023   0.976   1.027   0.944   0.931   0.810   0.834   1.052   1.050   0.914   0.877   0.738   0.926   0.901   0.872   0.963   0.982   0.937   0.958
   281.00    1.010   0.948   1.027   0.950   0.877   0.925   0.947   0.962   1.006   1.042   1.069   0.965   0.993   0.919   0.958   0.995   1.033   0.868   0.969   0.948   0.929   0.910   1.006   1.042   0.957   0.886   0.960   0.918   0.925   0.994   1.045   0.973   0.942   0.875   0.953   1.083   0.947   0.921   0.879   0.947   1.002
   271.00    0.896   0.952   0.988   0.983   0.911   0.802   0.932   0.937   1.061   1.054   1.108   1.080   1.104   0.962   0.942   1.052   1.060   0.906   0.916   0.955   1.020   0.989   0.970   1.009   0.934   0.913   1.037   0.905   0.974   1.085   1.040   0.933   0.944   1.014   1.020   0.949   0.993   0.839   0.891   0.907   1.021
   261.00    0.936   1.061   0.894   0.933   0.866   0.887   0.972   0.952   0.971   0.948   0.955   1.041   1.046   1.044   1.012   1.077   1.115   0.950   0.917   0.936   0.964   1.034   0.929   0.914   0.952   0.883   0.926   0.916   0.943   0.993   1.005   0.901   1.053   1.019   1.033   0.987   0.939   0.964   0.896   1.002   1.007
   251.00    1.064   1.041   0.952   0.973   0.947   0.900   0.988   0.953   0.924   0.965   0.927   0.928   1.017   0.995   1.059   1.114   1.060   0.985   0.930   0.829   0.958   0.997   0.845   0.877   0.871   0.960   0.944   1.026   0.978   0.968   0.989   0.953   1.011   1.093   1.033   1.014   1.049   0.888   0.935   0.996   0.954
   241.00    0.974   1.075   0.963   0.912   0.988   0.864   0.970   0.905   1.009   1.017   0.850   0.923   0.944   0.982   1.064   0.992   1.135   1.057   0.971   0.842   0.944   0.903   0.852   0.837   0.815   0.949   0.923   0.976   1.023   1.082   0.904   0.953   0.973   1.013   1.016   1.095   1.086   1.069   0.955   0.903   0.966
   231.00    1.058   1.035   0.954   0.927   0.858   1.030   1.012   0.980   0.976   0.966   0.830   0.953   1.015   0.942   1.024   1.079   1.117   1.132   1.090   0.944   0.998   0.910   0.898   0.903   0.875   0.981   1.073   1.018   0.943   0.972   0.870   0.950   0.956   0.961   1.008   0.947   1.038   1.042   0.860   0.905   0.958
   221.00    1.079   1.035   1.018   0.896   0.919   1.018   1.029   0.996   0.968   1.015   0.860   0.926   0.965   0.987   1.038   1.121   1.049   1.106   1.090   1.047   1.061   0.870   0.926   0.863   0.981   1.032   1.114   1.102   1.057   1.015   0.960   1.049   1.052   0.950   1.062   1.002   0.976   1.022   0.891   0.858   0.960
   211.00    1.055   1.054   1.008   0.989   1.024   0.963   1.026   0.889   0.951   0.919   0.814   0.809   0.932   1.033   1.079   1.048   1.001   1.007   1.020   1.100   1.105   0.988   0.912   0.873   0.974   1.015   1.104   1.011   1.076   0.906   0.906   0.944   1.011   0.949   1.114   0.934   1.025   0.871   0.955   1.003   1.017
   201.00    1.059   1.005   1.003   1.050   1.040   1.003   0.976   0.971   0.983   1.000   0.813   0.827   0.988   0.961   0.934   1.022   0.974   0.914   1.031   1.049   1.094   0.981   0.910   0.846   1.033   0.975   1.075   1.074   1.066   0.876   0.980   0.868   1.086   1.101   1.120   1.189   1.010   0.907   0.932   0.954   0.991
   191.00    1.088   1.064   0.995   1.054   1.074   0.960   0.913   0.933   0.930   0.922   0.870   0.885   0.955   0.973   0.994   0.988   0.978   1.003   0.969   1.018   1.020   0.925   0.930   0.814   0.987   1.107   1.114   1.083   0.975   0.907   1.017   0.968   1.032   1.086   1.082   1.089   1.054   0.971   0.900   0.928   1.089
   181.00    1.049   1.041   0.977   1.095   0.910   1.049   0.969   0.923   0.821   0.908   0.990   0.806   0.945   0.977   0.928   0.924   0.955   0.930   0.924   1.015   1.062   1.034   0.995   0.836   1.047   1.113   1.049   1.020   1.034   0.982   0.969   0.945   1.003   1.030   1.012   1.077   0.969   0.929   1.033   1.052   1.150
   171.00    1.020   1.150   1.123   1.135   1.061   0.932   0.978   0.906   0.819   0.892   0.934   0.902   0.995   0.950   0.875   0.831   0.911   0.940   0.941   0.832   0.957   0.985   0.884   0.934   0.995   1.078   1.062   1.028   1.024   0.961   0.937   0.892   0.973   1.053   0.928   0.988   1.013   1.027   1.092   1.059   1.085
   161.00    1.018   1.160   1.096   1.033   0.995   0.910   0.927   0.936   0.926   0.860   0.901   0.947   0.815   0.890   0.874   0.810   0.890   0.899   0.903   0.989   1.089   1.142   0.958   0.939   0.926   1.021   0.976   0.952   1.011   0.933   1.037   0.971   0.895   1.020   1.009   1.017   0.945   1.011   1.094   1.086   1.137
   151.00    1.126   1.204   1.111   1.015   0.917   0.911   0.899   0.972   0.981   0.898   0.891   0.917   0.896   0.874   0.934   0.846   0.896   0.895   0.944   1.044   1.057   1.201   0.968   0.967   0.956   0.950   1.015   0.989   0.945   0.934   1.019   0.985   0.948   1.018   0.932   1.000   0.945   0.935   1.115   1.049   1.081
   141.00    1.078   1.166   1.072   1.086   0.953   0.890   0.905   0.936   1.046   0.999   1.053   0.993   0.941   1.022   0.901   0.943   1.045   1.041   1.043   1.091   1.034   1.178   1.119   0.907   0.919   0.989   0.963   0.874   0.926   0.944   1.118   1.035   1.016   0.949   0.985   1.068   1.041   1.037   1.089   1.002   1.134
   131.00    1.028   1.038   1.043   1.056   0.946   0.879   0.910   0.886   0.963   1.048   1.110   0.977   0.981   0.936   0.934   0.899   1.027   0.985   1.122   1.085   1.208   1.172   1.024   0.981   0.945   0.958   0.951   0.946   0.893   0.922   1.072   0.967   0.959   1.036   1.084   1.049   1.128   1.002   1.030   0.989   1.026
   121.00    1.008   0.937   1.017   1.139   1.134   0.992   0.905   0.849   0.951   1.070   1.111   0.968   0.915   0.981   0.932   0.933   0.932   1.030   1.142   1.079   1.176   1.088   1.124   0.916   0.923   0.948   0.952   0.903   0.880   0.855   1.050   1.080   0.980   0.935   1.168   1.206   1.044   1.047   1.086   1.010   1.017
   111.00    1.057   0.918   1.002   1.124   0.996   1.010   0.894   0.817   0.990   1.057   0.998   0.940   0.926   0.966   0.938   1.003   0.975   1.042   1.087   1.186   1.076   1.148   1.202   0.957   0.976   1.004   0.949   0.940   0.875   0.927   1.079   1.030   1.039   0.982   1.162   1.251   1.106   1.041   1.097   1.037   1.031
   101.00    1.031   0.932   0.964   1.063   0.990   0.947   0.898   0.847   0.940   0.982   1.074   0.974   0.929   0.875   0.955   0.909   0.872   1.025   1.063   1.094   1.139   1.173   1.065   1.082   1.007   1.056   0.956   0.995   0.910   0.936   0.969   0.982   0.961   0.913   1.021   1.156   1.205   0.999   0.995   1.026   0.926
    91.00    0.949   0.934   1.025   1.054   1.003   0.906   0.853   0.895   0.879   0.882   1.027   0.913   0.867   0.939   0.957   0.913   0.896   0.958   0.978   1.041   0.983   1.038   1.037   0.999   1.007   1.061   0.978   0.907   0.993   0.933   0.886   0.990   0.983   0.964   1.070   1.083   1.074   0.892   0.995   1.016   1.049
    81.00    0.957   0.869   0.896   0.979   0.965   0.900   0.807   0.889   0.881   0.970   0.996   0.969   0.960   0.883   0.888   0.952   1.007   1.033   1.027   0.995   0.963   0.950   1.000   0.976   0.892   0.987   0.941   0.916   0.935   0.916   0.855   0.846   0.919   1.090   1.099   1.044   1.058   0.875   1.029   1.128   0.969
    71.00    0.988   0.938   0.880   0.870   0.932   0.945   0.966   0.924   1.024   0.966   0.982   0.998   0.882   0.965   0.932   0.917   1.089   1.089   1.148   0.993   1.049   0.943   0.862   0.941   0.948   0.826   0.982   1.122   0.869   0.905   0.927   0.886   1.030   1.026   1.120   1.021   0.983   0.900   0.946   1.033   1.006
    61.00    1.103   1.004   0.946   0.834   0.973   0.880   0.981   0.990   1.036   0.955   1.019   0.985   0.950   0.893   0.860   0.987   1.091   1.063   1.167   1.023   1.054   0.993   0.953   0.924   0.905   0.885   0.889   1.101   0.931   0.841   0.845   0.945   0.971   1.001   0.980   1.015   1.044   0.991   0.925   0.941   0.997
    51.00    1.003   0.888   0.909   0.784   0.866   0.873   0.980   1.068   0.997   1.075   0.999   0.991   0.953   1.023   0.912   0.942   1.031   1.035   1.124   1.065   1.029   1.050   1.061   1.018   0.914   0.874   0.895   1.056   0.959   0.828   0.802   0.959   0.946   0.912   0.982   1.000   1.012   0.947   0.888   0.910   1.005
    41.00    1.008   0.905   0.857   0.798   0.864   0.906   0.971   1.006   1.004   0.994   0.933   0.921   1.003   1.034   0.867   0.957   0.967   1.115   1.136   1.035   1.132   1.146   1.026   1.043   0.931   0.910   0.832   0.903   0.915   0.917   0.905   0.916   0.982   0.924   0.916   1.002   1.098   0.967   0.882   0.929   0.963
    31.00    1.023   1.010   0.913   0.909   0.980   0.866   0.929   0.917   0.983   0.898   0.941   0.960   0.932   0.969   0.998   0.978   0.954   1.137   1.106   1.066   1.109   1.076   1.025   0.932   1.028   0.803   0.870   0.901   0.867   0.867   0.931   0.960   0.971   0.955   0.942   0.993   1.020   1.083   0.996   0.975   0.947
    21.00    0.965   1.029   0.849   0.955   0.861   0.898   0.874   0.891   0.961   0.987   1.102   1.001   0.915   0.933   0.975   0.882   1.036   1.119   1.141   1.087   1.078   1.055   1.012   0.909   0.997   0.861   0.877   0.953   0.824   0.810   0.877   0.930   0.971   0.972   0.945   0.964   1.006   1.053   1.046   0.962   0.948
    11.00    0.968   1.047   0.881   0.981   0.877   0.884   0.948   0.866   0.909   1.057   1.079   1.041   0.882   0.924   0.963   0.920   1.061   1.132   1.057   1.028   0.988   0.991   0.998   1.003   0.903   0.976   0.812   0.911   0.947   0.900   0.984   1.033   0.953   1.013   0.943   0.921   0.948   1.044   1.065   1.060   0.976
     1.00    0.974   1.059   1.034   1.005   1.026   0.949   0.916   0.971   0.871   0.944   0.955   0.981   0.962   0.976   0.995   1.070   1.049   1.063   1.106   1.059   0.988   0.949   0.923   0.978   0.937   0.970   0.991   0.909   0.836   0.876   0.960   0.950   1.004   0.992   1.040   0.898   0.997   1.056   1.013   0.987   1.037

   Mean standard deviation across all grid points:
      u component:    0.969 m/s
      v component:    0.971 m/s
      w component:    0.978 m/s


U-component (X) statistics from the interpolated hub point:

   Mean =  10.0066 m/s
   TI   =   8.2196 %


Processing complete.  9.4688 CPU seconds used.
