
This summary file was generated by TurbSim (from OpenFAST-v3.4.1) on 25-Nov-2024 at 22:28:43.


Runtime Options:

      2041  Random seed #1
         0  Random seed #2
         F  Output binary HH turbulence parameters?
         F  Output formatted turbulence parameters?
         F  Output AeroDyn HH files?
         T  Output AeroDyn FF files?
         F  Output BLADED FF files?
         F  Output tower data?
         F  Output HAWC FF files?
         F  Output formatted FF files?
         T  Output coherent turbulence time step file?
 0 -  NONE  IEC turbulence models scaled to exact specified standard deviation


Turbine/Model Specifications:

        31  Vertical grid-point matrix dimension
        41  Horizontal grid-point matrix dimension
     0.100  Time step [seconds]
   200.000  Analysis time [seconds]
   200.000  Usable output time [seconds]
   151.000  Hub height [m]
   300.000  Grid height [m]
   600.000  Grid width [m]
     0.000  Vertical flow angle [degrees]
     0.000  Horizontal flow angle [degrees]


Meteorological Boundary Conditions:

    IECVKM  IEC von Karman spectral model
         1  IEC standard: IEC 61400-1 Ed. 2: 1999
    10.000  Percent turbulence intensity, IEC 61400-1 Ed. 2: 1999
       NTM  IEC Normal Turbulence Model
       N/A  IEC Extreme Turbulence Model (ETM) "c" parameter [m/s]
       PL   Wind profile type
   150.000  Reference height [m]
    10.000  Reference wind speed [m/s]
       N/A  Jet height [m]
     0.100  Power law exponent
     0.030  Surface roughness length [m]


Non-IEC Meteorological Boundary Conditions:

       N/A  Site latitude [degrees]
       N/A  Gradient Richardson number
       N/A  Friction or shear velocity [m/s]
       N/A  Mixing layer depth [m]
       N/A  Mean hub u'w' Reynolds stress
       N/A  Mean hub u'v' Reynolds stress
       N/A  Mean hub v'w' Reynolds stress


Spatial Coherence Models:

       IEC  u-component coherence model
       IEC  v-component coherence model
       IEC  w-component coherence model
(   12.000, 0.659E-03)  u-component coherence parameters
(   12.000, 0.659E-03)  v-component coherence parameters
(   12.000, 0.659E-03)  w-component coherence parameters
       N/A  Coherence exponent


You have requested that the following file(s) be generated:

   ./TurbulentWind_20WT/FOWTs/Wind\InflowWind_High_WT17.bts (AeroDyn/TurbSim full-field wind file)


Turbulence Simulation Scaling Parameter Summary:

   Turbulence model used                            =  IEC von Karman
   Turbulence characteristic                        =  User-specified
   IEC standard                                     =  IEC 61400-1 Ed. 2: 1999
   Mean wind speed at hub height                    =   10.007 m/s
   Characteristic value of standard deviation       =    1.001 m/s
   Turbulence scale                                 =   21.000 m
   Isotropic integral scale                         =   73.500 m
   Characteristic value of hub turbulence intensity =   10.000%
   Gradient Richardson number                       =    0.000

   Wind profile type                                =  Power law
   Power law exponent                               =    0.100
   Mean shear across rotor disk                     =    0.016 (m/s)/m
   Assumed rotor diameter                           =  300.000 m
   Surface roughness length                         =    0.030 m

   Nyquist frequency of turbulent wind field        =    5.000 Hz

   Number of time steps in the FFT                  =     2600
   Number of time steps output                      =     2600
   Number of points simulated                       =     1271


Mean Flow Angles:

   Vertical   =   0.0 degrees
   Horizontal =   0.0 degrees

Mean Wind Speed Profile:

   Height    Wind Speed   Horizontal Angle  Vertical Angle  U-comp (X)   V-comp (Y)   W-comp (Z)
     (m)        (m/s)         (degrees)       (degrees)       (m/s)        (m/s)        (m/s)   
   ------    ----------   ----------------  --------------  ----------   ----------   ----------
    301.0       10.72            0.00            0.00         10.72         0.00         0.00
    291.0       10.69            0.00            0.00         10.69         0.00         0.00
    281.0       10.65            0.00            0.00         10.65         0.00         0.00
    271.0       10.61            0.00            0.00         10.61         0.00         0.00
    261.0       10.57            0.00            0.00         10.57         0.00         0.00
    251.0       10.53            0.00            0.00         10.53         0.00         0.00
    241.0       10.49            0.00            0.00         10.49         0.00         0.00
    231.0       10.44            0.00            0.00         10.44         0.00         0.00
    221.0       10.40            0.00            0.00         10.40         0.00         0.00
    211.0       10.35            0.00            0.00         10.35         0.00         0.00
    201.0       10.30            0.00            0.00         10.30         0.00         0.00
    191.0       10.24            0.00            0.00         10.24         0.00         0.00
    181.0       10.19            0.00            0.00         10.19         0.00         0.00
    171.0       10.13            0.00            0.00         10.13         0.00         0.00
    161.0       10.07            0.00            0.00         10.07         0.00         0.00
    151.0       10.01            0.00            0.00         10.01         0.00         0.00
    141.0        9.94            0.00            0.00          9.94         0.00         0.00
    131.0        9.87            0.00            0.00          9.87         0.00         0.00
    121.0        9.79            0.00            0.00          9.79         0.00         0.00
    111.0        9.70            0.00            0.00          9.70         0.00         0.00
    101.0        9.61            0.00            0.00          9.61         0.00         0.00
     91.0        9.51            0.00            0.00          9.51         0.00         0.00
     81.0        9.40            0.00            0.00          9.40         0.00         0.00
     71.0        9.28            0.00            0.00          9.28         0.00         0.00
     61.0        9.14            0.00            0.00          9.14         0.00         0.00
     51.0        8.98            0.00            0.00          8.98         0.00         0.00
     41.0        8.78            0.00            0.00          8.78         0.00         0.00
     31.0        8.54            0.00            0.00          8.54         0.00         0.00
     21.0        8.22            0.00            0.00          8.22         0.00         0.00
     11.0        7.70            0.00            0.00          7.70         0.00         0.00
      1.0        6.06            0.00            0.00          6.06         0.00         0.00


Harvested Random Seeds after Generation of the Random Numbers:

   1340130173 Harvested seed # 1
   1971657505 Harvested seed # 2


Hub-Height Simulated Turbulence Statistical Summary:

   Type of Wind        Min (m/s)   Mean (m/s)    Max (m/s)  Sigma (m/s)       TI (%)
   ----------------    ---------   ----------    ---------  -----------       ------
   Longitudinal (u)         6.89        10.01        13.13        0.903        9.023
   Lateral (v)             -3.89         0.00         2.96        1.008       10.069
   Vertical (w)            -3.23         0.00         3.40        1.094       10.929
   U component              6.89        10.01        13.13        0.903        9.023
   V component             -3.89         0.00         2.96        1.008       10.069
   W component             -3.23         0.00         3.40        1.094       10.929
   Horizontal (U&V)         6.91        10.06        13.35        0.896        8.913
   Total                    6.91        10.12        13.35        0.893        8.826

                       Min Reynolds     Mean Reynolds    Max Reynolds    Correlation
   Product             Stress (m/s)^2   Stress (m/s)^2   Stress (m/s)^2  Coefficient
   ----------------    --------------   --------------   --------------  -----------
   u'w'                     -3.996             0.042             5.465         0.042
   u'v'                     -7.586            -0.181             3.583        -0.199
   v'w'                     -7.228            -0.154             4.652        -0.140


   Friction Velocity (Ustar)  =      0.205 m/s
   Maximum Instantaneous TKE  =      9.644 (m/s)^2
   Maximum Instantaneous CTKE =      4.042 (m/s)^2


Grid Point Variance Summary:

   Y-coord -300.00 -285.00 -270.00 -255.00 -240.00 -225.00 -210.00 -195.00 -180.00 -165.00 -150.00 -135.00 -120.00 -105.00  -90.00  -75.00  -60.00  -45.00  -30.00  -15.00    0.00   15.00   30.00   45.00   60.00   75.00   90.00  105.00  120.00  135.00  150.00  165.00  180.00  195.00  210.00  225.00  240.00  255.00  270.00  285.00  300.00

   Height   Standard deviation at grid points for the u component:
   301.00    0.911   0.965   0.863   0.895   0.830   0.922   0.854   0.955   1.005   0.957   0.844   0.832   0.815   0.883   0.979   0.914   0.955   0.998   1.162   1.125   1.091   1.152   0.989   0.961   1.021   0.998   0.931   0.982   0.991   0.965   0.961   0.915   0.923   0.851   1.053   1.056   0.960   0.843   0.786   0.760   0.813
   291.00    1.011   0.957   0.866   0.917   0.959   1.045   1.007   0.941   0.950   0.983   0.769   0.820   0.839   0.869   0.948   0.948   1.126   1.041   1.122   1.061   1.114   1.138   1.078   1.001   1.096   0.952   0.962   1.032   0.946   0.890   0.943   0.988   0.887   0.853   1.011   0.993   0.985   0.961   0.748   0.753   0.885
   281.00    0.961   0.928   0.825   0.989   1.106   1.049   1.023   0.967   0.899   0.891   0.873   0.850   0.880   0.924   0.989   0.931   1.048   1.022   0.995   1.087   0.974   0.999   1.009   0.936   1.044   0.988   1.041   0.969   0.978   1.005   0.880   0.968   0.912   0.869   0.883   1.004   0.958   0.936   0.882   0.911   0.952
   271.00    1.002   0.915   0.987   0.885   0.941   0.986   1.108   0.965   0.886   0.945   0.981   1.033   0.855   0.994   0.962   0.886   1.097   1.065   0.901   1.096   1.024   1.029   0.907   0.879   0.959   0.926   0.942   0.974   0.916   0.927   0.834   0.852   0.883   0.891   0.927   0.932   0.922   0.927   0.887   1.020   1.035
   261.00    0.932   0.912   1.003   0.849   0.974   0.962   1.044   1.083   0.993   0.884   0.869   1.098   0.905   0.971   1.057   1.037   1.075   0.935   1.040   1.104   0.981   1.021   0.991   0.978   0.900   0.935   0.980   0.955   0.875   0.831   0.775   0.779   0.795   0.839   0.863   0.959   0.952   1.041   1.022   1.205   1.067
   251.00    0.874   0.855   0.877   0.886   0.945   0.943   1.053   0.965   0.983   0.945   0.898   1.057   1.044   1.040   1.054   0.977   0.958   1.059   1.035   1.097   1.113   1.187   1.102   1.078   0.950   0.912   0.949   0.891   0.850   0.888   0.773   0.774   0.786   0.770   0.749   0.973   1.056   1.152   1.021   1.052   1.025
   241.00    0.945   0.942   0.890   0.845   0.899   0.915   0.887   0.970   0.955   0.889   0.939   1.037   0.964   1.068   0.967   0.879   0.902   0.962   1.007   1.111   1.193   1.205   1.215   1.089   0.895   0.974   0.957   0.884   0.940   0.929   0.836   0.873   0.781   0.845   0.794   0.856   1.021   0.995   1.090   1.024   0.977
   231.00    0.952   0.929   0.897   0.885   0.867   0.946   0.831   0.928   0.897   0.891   0.937   1.037   0.987   0.918   0.845   0.911   0.866   0.904   1.106   1.151   1.230   1.157   1.129   1.081   0.893   0.944   0.898   0.775   0.897   0.895   0.905   0.791   0.922   1.026   0.878   0.832   0.882   1.007   1.136   1.118   1.267
   221.00    0.991   1.014   0.905   0.921   0.887   0.917   0.897   0.995   0.884   0.787   0.922   0.882   1.002   1.007   0.855   0.839   0.949   0.908   0.971   1.151   1.028   1.073   1.046   1.154   0.996   0.934   1.001   0.896   0.898   0.980   0.857   0.884   0.889   0.939   0.851   0.795   0.918   1.010   1.125   1.104   1.188
   211.00    0.857   0.966   0.978   0.992   0.985   1.023   0.918   0.986   0.932   0.821   0.869   0.820   0.936   0.948   0.824   0.872   0.833   1.026   1.082   1.091   1.104   1.122   1.092   1.015   1.007   0.993   1.002   0.954   0.946   0.978   0.992   0.933   0.918   0.867   0.902   0.773   0.861   0.895   1.022   1.076   1.146
   201.00    0.822   0.885   0.882   0.952   0.925   1.082   1.134   1.003   0.992   0.880   0.845   0.929   0.873   0.989   0.893   0.971   0.835   0.938   1.129   1.106   0.997   1.014   1.124   1.047   1.001   0.995   1.019   0.987   0.999   0.890   0.934   0.916   0.920   0.851   0.910   1.009   0.860   0.903   0.935   1.110   1.097
   191.00    0.958   0.980   0.751   0.790   0.796   0.971   1.103   0.947   0.927   0.895   0.845   0.861   0.855   0.966   0.872   1.038   1.033   0.882   0.990   1.118   1.078   1.164   1.129   1.017   1.038   0.982   0.932   0.944   0.955   0.864   0.769   0.935   0.870   0.845   0.955   0.960   0.892   0.968   0.951   0.944   0.952
   181.00    0.922   0.802   0.821   0.884   0.868   0.833   1.133   0.968   1.038   0.844   0.898   0.917   0.757   0.869   0.992   1.036   0.939   0.912   0.915   1.051   1.074   1.109   1.037   1.067   1.056   0.946   0.868   1.001   0.862   0.862   0.862   0.859   0.967   0.850   1.009   0.932   0.936   0.871   0.861   0.893   0.848
   171.00    0.878   0.806   0.827   0.871   0.903   0.909   1.085   0.980   0.880   0.887   0.830   0.905   0.861   0.911   0.872   0.972   0.963   0.990   0.942   0.961   0.964   1.054   1.084   1.097   1.132   1.007   0.855   0.916   0.914   0.738   0.867   0.866   0.870   0.903   0.935   0.937   0.929   0.916   0.783   0.787   0.834
   161.00    0.870   0.836   0.884   0.881   0.924   0.818   0.983   1.015   0.863   0.835   0.964   0.901   0.959   0.967   0.919   0.829   0.890   0.910   0.814   0.929   0.957   0.989   0.984   0.954   1.125   1.030   1.009   0.877   0.888   0.833   0.870   0.911   0.822   0.847   0.846   0.905   0.895   0.876   0.942   0.764   0.906
   151.00    0.908   0.810   0.798   0.856   0.930   0.987   0.965   1.017   0.936   0.954   0.985   0.938   1.010   0.942   1.008   0.972   0.920   0.877   0.955   0.903   0.903   0.951   0.883   0.923   0.960   1.034   0.995   0.920   0.899   0.813   0.882   0.945   0.835   0.804   0.796   0.925   0.878   0.846   0.837   0.817   0.867
   141.00    0.967   0.846   0.821   0.912   0.862   0.903   1.013   1.019   1.053   1.027   1.095   0.928   0.881   0.927   1.003   0.932   0.880   0.865   0.843   0.978   0.904   0.963   1.026   0.900   1.021   0.878   0.916   0.981   0.897   0.955   0.995   0.978   0.961   0.920   0.899   1.064   1.125   0.899   1.018   0.850   0.839
   131.00    0.834   0.850   0.863   0.944   0.879   0.839   0.895   1.067   1.039   1.039   1.071   0.881   0.914   0.980   0.885   0.850   0.829   0.836   0.851   0.892   0.943   0.978   0.910   0.880   0.944   1.025   1.031   1.022   0.955   0.956   1.053   0.925   1.020   1.050   1.026   1.126   1.217   0.990   1.105   0.935   0.831
   121.00    0.887   0.855   0.943   0.863   0.847   0.865   0.936   1.013   1.039   1.016   0.874   0.895   0.851   0.954   0.954   0.889   0.828   0.879   0.795   0.873   0.934   0.953   0.930   0.926   0.920   1.050   1.086   0.928   0.949   0.974   1.052   0.976   0.918   1.120   1.046   1.152   1.142   1.032   1.069   0.961   0.852
   111.00    0.962   0.908   0.993   0.851   0.994   0.813   0.982   0.998   0.961   0.940   0.974   0.861   0.856   0.954   0.929   0.846   0.768   0.874   0.888   0.776   0.847   0.846   0.842   0.985   1.127   1.194   1.038   0.974   0.901   1.026   1.002   0.912   0.830   1.046   1.081   1.199   1.121   1.002   1.045   1.025   0.847
   101.00    1.058   1.015   1.025   0.849   0.912   0.958   0.927   1.062   1.032   1.045   1.002   0.915   0.837   0.914   0.959   0.878   0.804   0.848   0.916   0.914   0.773   0.861   0.886   1.113   1.158   1.163   0.991   0.956   0.876   0.977   0.921   0.892   0.851   0.921   1.093   1.220   1.059   1.078   1.075   0.991   1.054
    91.00    0.984   0.903   0.871   0.880   0.923   0.950   0.943   1.011   0.991   0.954   0.935   0.920   0.956   0.939   1.062   0.980   0.982   0.933   0.909   0.896   0.861   0.805   0.996   1.108   1.085   1.053   0.844   0.924   0.930   0.947   0.960   0.909   0.906   0.943   0.967   1.078   1.073   1.095   1.028   0.913   1.086
    81.00    0.957   0.838   0.892   0.895   0.820   0.882   0.958   0.883   0.956   0.970   0.892   0.976   0.934   0.950   1.026   0.944   0.928   0.979   1.008   0.864   0.884   0.854   0.914   1.066   1.052   0.992   0.848   0.863   0.930   0.924   0.975   0.884   0.948   0.995   0.810   0.975   0.989   1.048   1.123   0.858   1.087
    71.00    1.045   0.998   0.851   0.815   0.801   0.909   0.847   0.969   0.816   0.936   0.983   0.999   1.088   0.973   0.887   0.873   0.868   0.945   0.950   0.858   0.863   0.993   0.984   1.125   0.959   0.941   0.923   0.913   0.916   0.983   1.047   0.883   0.807   0.846   0.803   1.008   1.090   1.077   1.028   0.965   1.009
    61.00    1.059   0.917   0.907   0.799   0.815   0.898   0.855   0.996   0.785   0.933   0.936   0.980   1.053   1.041   0.737   0.910   0.840   0.927   0.871   0.865   0.831   0.927   1.052   1.019   1.178   1.149   1.008   0.926   0.881   0.964   1.035   0.933   0.888   0.807   0.852   1.036   1.014   1.125   1.064   0.950   0.885
    51.00    1.103   0.964   0.876   0.842   0.792   0.885   0.897   1.008   0.850   0.804   1.017   0.994   1.042   0.977   0.787   0.881   0.931   0.961   0.869   0.949   0.811   0.820   1.023   1.066   1.137   1.098   1.055   0.910   0.825   1.074   1.067   0.912   0.873   0.899   0.825   1.018   1.048   0.934   1.057   1.126   0.963
    41.00    1.022   0.972   0.834   0.919   0.813   0.848   0.988   0.930   0.891   0.928   0.918   0.912   0.993   0.910   0.907   0.866   0.899   0.937   0.869   0.920   0.715   0.905   0.900   1.029   1.076   0.995   0.925   0.967   0.949   1.038   1.027   0.902   0.814   0.841   0.881   0.984   0.988   1.037   0.976   1.039   0.994
    31.00    0.930   0.993   0.893   0.793   0.847   0.906   1.013   0.988   0.910   0.883   0.859   0.852   0.946   0.815   0.877   0.829   0.926   0.905   0.867   0.870   0.877   0.953   0.982   1.113   0.983   1.038   1.043   1.073   0.877   1.038   0.978   0.894   0.776   0.860   0.916   0.956   0.962   1.012   0.947   1.013   0.996
    21.00    1.027   0.991   0.754   0.806   0.937   0.907   0.985   0.896   0.818   0.876   0.919   0.841   0.968   0.873   0.996   1.033   0.938   1.016   0.991   0.981   0.848   0.841   1.011   1.143   1.009   0.963   0.975   1.009   1.005   1.066   1.024   0.877   0.894   0.985   1.040   0.968   0.997   0.951   0.838   1.009   1.072
    11.00    1.027   0.917   0.860   0.810   0.840   0.984   0.950   0.922   0.831   0.858   0.878   0.849   0.872   0.819   0.880   0.854   0.958   1.059   0.867   0.937   0.862   0.822   1.003   1.146   0.932   0.950   0.967   0.988   1.032   1.066   0.983   0.866   0.882   1.056   0.982   0.973   0.912   0.960   0.909   0.943   0.979
     1.00    0.963   0.909   0.844   0.940   0.932   0.954   0.841   0.834   0.892   0.843   0.859   0.847   0.808   0.855   0.911   0.765   0.925   1.038   1.022   0.966   0.894   0.925   0.982   1.050   0.999   0.967   0.958   0.998   0.998   0.961   0.913   0.870   0.933   0.983   1.034   1.002   0.929   0.949   0.911   0.904   0.998

   Height   Standard deviation at grid points for the v component:
   301.00    1.045   0.867   0.981   0.925   0.946   1.018   1.034   0.984   0.852   0.904   0.821   0.896   0.907   0.883   0.955   0.903   0.955   0.918   1.105   1.043   1.117   1.016   0.917   0.834   0.912   0.970   1.134   1.013   1.142   1.043   1.033   1.063   1.183   1.097   1.144   1.060   1.107   1.094   0.993   1.018   0.936
   291.00    1.017   0.883   0.971   0.914   0.946   0.935   1.008   0.874   0.820   0.834   0.826   0.820   0.785   0.900   0.930   0.899   0.961   0.934   1.110   1.072   1.108   0.986   0.948   0.865   0.946   1.135   1.023   1.077   1.075   0.994   1.060   1.064   1.082   1.051   1.029   1.015   0.988   1.070   1.054   1.020   0.993
   281.00    0.929   0.900   0.888   0.928   0.907   0.935   0.996   0.952   0.912   0.943   0.901   0.899   0.847   0.860   0.903   0.919   0.943   0.994   1.089   1.105   1.091   0.953   1.020   0.901   0.939   1.069   0.961   1.057   1.054   0.943   1.074   1.125   1.078   1.031   1.039   1.018   0.920   0.953   0.947   0.934   1.001
   271.00    1.023   0.916   0.829   0.893   0.915   0.969   0.991   0.850   0.930   1.011   0.864   0.889   0.969   0.980   1.005   0.877   0.892   0.944   1.015   1.094   1.027   1.009   0.942   0.916   0.945   1.024   0.954   1.004   1.000   0.893   1.028   1.203   1.058   1.006   1.000   1.019   1.052   0.895   0.967   0.926   0.916
   261.00    0.988   0.885   0.842   0.938   0.826   0.991   0.931   0.849   0.934   0.906   0.936   0.903   0.929   0.889   0.953   0.929   0.892   0.926   0.900   1.074   1.114   1.055   0.931   0.869   0.984   0.951   0.942   0.940   0.972   0.864   0.998   1.241   1.169   1.034   1.013   0.964   0.960   0.887   0.959   0.975   0.957
   251.00    0.982   0.972   1.008   0.935   0.894   0.952   0.935   0.959   0.920   1.067   1.072   0.952   0.916   0.914   1.024   1.044   0.952   0.913   1.020   1.143   1.189   0.981   0.990   1.001   0.962   0.933   0.905   0.882   0.889   0.956   1.014   1.118   1.208   1.058   1.056   1.066   1.056   1.008   1.004   0.915   0.895
   241.00    1.084   1.005   0.971   0.923   0.879   0.904   0.852   0.989   1.106   1.041   1.086   1.061   0.910   0.928   1.035   1.174   1.061   0.961   1.011   1.090   1.096   0.975   1.066   0.935   0.901   0.891   0.831   0.837   0.848   0.932   0.956   0.987   1.088   1.087   1.024   1.085   1.045   1.045   0.970   0.890   0.919
   231.00    0.948   0.949   1.125   0.983   1.025   0.891   0.965   0.989   1.037   1.026   1.034   0.955   0.928   0.968   1.133   1.215   1.105   1.021   1.004   0.938   1.038   1.103   1.000   0.986   0.890   0.853   0.884   0.899   0.839   0.933   0.929   0.954   0.997   0.973   0.974   0.960   1.107   0.988   0.910   0.970   0.844
   221.00    1.036   1.012   1.127   0.926   0.990   0.930   1.003   1.063   1.039   1.024   0.981   0.949   1.036   1.018   1.100   1.191   1.020   1.100   1.073   0.979   0.987   0.979   1.058   0.971   0.829   0.873   0.894   0.879   0.847   0.841   0.870   0.928   1.032   0.959   0.935   0.954   0.971   0.913   0.911   0.922   0.938
   211.00    0.940   0.890   0.967   1.061   0.877   1.005   1.033   1.043   1.033   0.959   0.913   1.025   1.084   1.062   1.073   1.143   1.074   1.098   0.997   1.002   0.968   1.008   1.124   0.943   0.853   0.868   0.905   0.863   0.866   0.790   0.792   0.953   0.970   0.959   0.958   0.932   1.054   1.064   0.941   0.944   0.892
   201.00    0.895   0.870   0.995   1.076   0.946   0.995   0.856   0.942   0.969   0.861   0.923   0.951   1.106   1.066   1.086   1.033   0.984   1.065   1.078   0.959   1.049   1.108   1.084   0.950   1.059   0.850   0.977   0.912   0.858   0.826   0.910   1.023   0.967   0.968   0.856   0.982   0.989   0.984   1.013   0.879   0.828
   191.00    0.916   0.921   0.950   1.032   0.985   0.941   0.890   0.926   1.009   1.072   0.957   0.958   1.033   1.049   1.059   1.095   1.096   1.151   1.181   0.918   1.024   1.159   1.058   1.057   0.982   0.920   0.915   0.906   0.860   0.927   0.953   0.995   1.008   1.168   0.940   1.040   0.902   0.932   1.047   0.945   0.865
   181.00    0.954   0.973   1.049   0.951   0.898   0.832   0.925   0.902   1.007   1.104   1.057   0.930   1.080   1.056   1.181   1.168   1.117   1.160   1.183   1.010   0.970   1.102   0.981   1.064   0.985   0.865   0.970   1.005   0.815   0.868   0.853   0.965   1.016   1.062   1.081   1.030   0.996   0.936   1.089   1.022   0.846
   171.00    0.968   0.961   1.076   1.032   0.955   0.887   0.928   0.962   0.952   1.121   1.054   1.060   0.950   1.047   1.188   1.072   1.129   1.228   1.117   0.964   0.882   1.068   1.173   1.143   1.019   0.968   1.021   1.059   0.985   0.867   0.892   0.965   0.938   1.000   1.016   0.898   0.972   0.863   1.018   0.935   0.902
   161.00    1.025   1.104   1.039   1.041   0.881   0.895   0.930   0.895   0.960   1.050   0.972   0.951   0.960   1.131   1.131   1.089   1.218   1.279   1.162   1.037   0.929   1.014   1.079   1.078   1.078   1.072   0.960   1.020   0.960   0.881   0.889   0.972   0.864   0.934   1.026   0.976   0.886   1.087   0.979   0.969   0.930
   151.00    1.005   1.026   1.130   0.866   0.909   0.861   0.840   0.922   0.881   0.982   1.110   1.004   0.994   1.031   1.043   1.125   1.299   1.341   1.174   1.047   1.008   1.032   0.998   0.986   1.078   1.016   0.954   1.014   0.915   0.840   0.898   0.824   0.941   0.871   1.002   0.981   0.929   1.081   1.053   0.993   1.150
   141.00    0.993   1.006   1.124   1.103   0.947   0.856   0.892   0.907   0.912   0.975   1.014   1.025   1.038   1.055   0.988   1.069   1.225   1.312   1.037   1.042   1.014   1.030   1.097   1.058   1.043   0.994   0.908   1.007   0.957   0.825   0.885   0.893   0.929   0.880   0.931   0.972   0.980   0.960   0.931   1.040   1.106
   131.00    0.977   0.912   1.030   1.090   0.916   1.025   0.973   0.935   0.947   0.945   1.003   0.943   1.056   0.960   1.097   1.161   1.232   1.216   1.095   1.050   0.995   0.997   1.084   1.107   1.074   1.082   1.080   1.003   0.915   0.956   0.890   0.928   0.946   0.963   0.905   0.823   0.860   0.857   1.015   0.956   1.045
   121.00    1.020   0.881   1.084   1.016   0.930   0.954   0.981   0.913   0.960   0.965   0.965   1.162   1.038   1.048   1.119   1.111   1.150   1.056   1.094   1.096   1.012   1.022   1.063   1.046   1.056   1.070   1.097   1.054   0.953   0.931   0.880   0.897   0.902   0.847   0.896   0.831   0.953   1.076   1.073   1.025   1.020
   111.00    0.996   0.969   1.022   1.007   1.015   1.007   1.054   0.925   0.857   1.075   1.010   1.073   1.096   1.111   1.106   1.035   1.117   1.043   0.971   1.116   1.060   0.926   0.994   1.015   1.067   1.050   1.100   1.049   0.981   1.019   0.831   0.909   0.831   0.914   1.004   0.897   1.022   1.050   0.972   0.996   0.946
   101.00    0.925   0.992   1.119   1.098   1.145   1.156   1.058   1.057   1.033   1.012   1.073   1.103   1.064   0.997   0.994   1.048   1.104   1.142   0.997   0.974   1.032   0.934   1.010   0.981   1.116   1.035   1.123   0.978   1.021   0.962   0.902   0.939   0.869   0.902   0.895   0.977   1.030   0.993   0.929   0.948   0.866
    91.00    0.984   0.983   1.125   1.042   1.104   1.136   1.229   1.185   1.060   0.940   0.907   1.038   1.061   1.130   1.186   1.074   1.145   1.143   1.000   0.959   0.941   1.071   1.004   1.033   1.061   1.096   1.126   0.955   1.080   1.011   0.850   0.873   0.811   0.938   0.941   0.942   1.025   0.976   0.995   0.958   0.978
    81.00    0.992   1.021   1.032   0.971   0.964   1.189   1.290   1.236   1.010   0.954   0.956   1.094   1.013   1.076   1.009   1.038   1.084   1.150   1.053   0.953   0.990   1.069   1.074   1.063   1.042   1.143   1.132   1.039   1.046   0.920   0.869   0.817   0.817   0.927   0.983   0.947   0.901   0.905   0.916   0.926   0.934
    71.00    0.943   0.928   0.974   0.817   0.988   1.077   1.222   1.171   1.062   0.962   0.959   0.987   0.993   0.960   1.056   1.102   1.072   1.030   1.066   1.063   0.945   1.020   0.997   1.037   1.008   1.176   1.119   1.042   1.071   0.956   0.925   0.821   0.936   0.840   0.906   0.903   0.864   0.955   1.041   0.913   1.087
    61.00    0.933   0.986   1.024   0.849   0.904   1.061   1.144   1.051   1.085   1.031   0.975   1.009   0.985   0.999   1.043   1.056   0.966   1.044   1.046   1.114   1.122   1.049   0.936   1.007   1.108   1.097   1.085   1.023   0.913   0.952   0.952   0.947   0.926   0.930   0.939   0.967   0.885   0.981   1.042   0.982   1.019
    51.00    0.875   1.061   1.075   1.009   1.069   1.128   1.107   1.022   0.955   1.101   1.056   0.971   1.020   1.019   0.987   1.048   1.039   1.058   1.039   1.053   1.136   1.021   0.964   0.984   1.155   1.094   1.005   1.055   0.947   1.094   1.026   0.886   0.891   0.854   0.990   0.939   0.953   0.951   0.985   0.985   0.951
    41.00    0.887   1.096   1.011   1.020   1.088   1.030   1.129   1.077   1.049   1.095   1.132   0.919   0.956   0.964   0.949   0.937   1.053   1.105   0.962   0.980   1.159   1.106   1.111   1.191   1.145   1.074   1.136   1.035   1.136   1.082   0.957   1.000   0.914   0.879   0.802   0.836   0.938   1.051   1.056   0.948   0.981
    31.00    0.828   0.979   0.986   1.001   1.088   0.946   1.049   1.167   1.061   1.040   1.054   0.875   0.891   1.006   1.066   0.984   0.979   1.052   1.066   1.038   0.992   1.143   1.145   1.218   1.216   1.175   1.064   0.997   1.045   1.014   0.978   0.972   0.962   0.966   0.870   0.823   0.960   1.092   1.046   1.029   0.946
    21.00    0.897   0.933   0.938   1.044   1.058   1.060   1.045   1.179   1.058   1.022   0.935   0.971   0.908   0.946   1.012   0.906   0.971   0.992   1.016   1.050   1.007   1.090   1.013   1.141   1.172   1.157   1.004   1.047   1.033   1.060   1.054   0.966   1.092   0.947   0.887   0.805   0.840   1.059   0.980   0.963   1.056
    11.00    0.900   0.938   0.944   1.001   0.957   1.067   1.068   1.128   1.122   0.986   0.867   0.920   0.851   0.896   0.922   0.865   0.881   0.931   1.084   0.963   1.071   1.081   0.937   1.024   1.042   1.097   0.969   1.024   1.040   0.982   0.939   0.988   1.046   0.967   0.853   0.867   0.987   1.026   1.001   0.955   1.019
     1.00    0.974   1.001   1.010   0.918   1.023   1.078   1.092   1.099   1.010   1.038   0.928   0.900   0.903   0.940   0.847   0.893   0.912   0.939   0.951   0.980   1.018   1.054   1.014   0.947   1.028   0.998   1.005   1.065   1.019   0.959   1.038   0.994   1.021   1.053   0.903   0.911   0.923   0.901   0.996   1.009   0.975

   Height   Standard deviation at grid points for the w component:
   301.00    1.107   1.092   1.028   1.154   1.217   1.249   1.233   1.153   1.249   1.144   1.173   0.925   0.982   1.022   1.116   1.137   0.995   1.006   0.909   1.037   1.014   1.053   1.071   0.973   1.059   0.994   1.015   1.052   0.999   1.078   1.024   1.050   1.095   1.061   1.028   0.994   1.030   1.010   1.013   1.086   1.002
   291.00    1.091   1.035   1.006   1.066   1.138   1.103   1.105   1.103   1.206   1.186   1.152   1.079   1.022   1.009   1.108   1.078   1.005   1.105   1.002   0.946   0.996   1.037   1.095   0.922   1.051   1.104   1.156   1.066   1.107   1.064   1.133   1.080   0.959   0.878   0.939   0.999   1.046   1.101   1.005   1.003   0.961
   281.00    1.001   1.091   0.971   0.968   1.073   1.144   1.126   1.214   1.259   1.242   1.219   1.073   1.018   0.988   1.006   0.970   1.000   1.081   1.089   0.936   0.901   0.939   1.080   1.041   1.021   1.166   1.086   1.059   1.123   1.085   1.098   1.148   0.982   0.932   0.902   0.970   0.966   1.054   1.001   0.882   0.918
   271.00    0.915   0.898   0.945   0.971   1.079   1.070   1.052   1.271   1.226   1.238   1.101   1.147   1.042   1.084   0.908   0.916   0.954   1.018   0.984   0.951   0.859   0.914   0.977   0.972   0.997   1.137   1.079   1.056   1.053   1.049   1.021   1.026   0.958   0.981   0.910   0.954   1.063   0.975   0.961   0.905   0.996
   261.00    0.822   1.005   0.937   0.978   1.120   1.066   1.088   1.231   1.304   1.208   1.148   1.067   1.035   0.987   0.940   0.928   0.950   1.012   0.952   0.939   0.900   0.914   1.079   0.936   0.905   0.987   1.066   1.069   1.005   1.017   1.043   1.062   0.953   0.953   0.911   0.968   1.113   1.008   0.973   1.018   1.035
   251.00    0.797   0.978   1.009   0.940   1.084   1.130   1.191   1.118   1.182   1.132   0.976   1.024   1.060   1.004   0.953   0.915   0.881   0.957   0.927   0.965   0.848   0.971   1.028   0.890   0.963   0.974   0.898   0.961   0.929   0.983   0.968   1.118   0.991   1.059   0.950   1.029   1.000   0.931   0.968   1.033   0.975
   241.00    0.900   0.914   0.951   0.938   0.999   1.126   1.128   1.048   1.001   1.021   1.028   0.937   1.017   0.935   0.942   0.904   0.936   0.924   0.962   0.957   0.870   1.006   0.979   0.900   0.915   0.882   0.906   0.965   0.881   0.906   0.964   1.106   1.043   0.991   1.014   0.968   0.985   1.038   0.935   1.041   1.101
   231.00    0.860   0.931   0.959   0.948   1.080   1.092   1.007   0.986   0.939   0.944   0.984   1.036   0.971   0.904   0.869   0.934   0.863   0.939   0.930   0.947   0.948   0.932   1.063   0.918   1.004   0.927   0.924   0.982   0.907   1.025   0.951   1.016   1.021   0.963   1.011   0.997   1.075   1.016   1.050   1.055   1.138
   221.00    1.050   0.996   0.976   1.015   1.082   1.037   0.990   0.950   0.963   0.887   0.861   0.972   0.902   0.815   1.011   1.060   1.026   0.917   0.848   0.878   1.009   0.975   0.993   0.944   0.952   0.967   0.905   0.941   0.992   0.975   0.907   0.902   0.995   0.985   1.007   0.975   1.016   1.000   1.041   1.056   1.175
   211.00    1.069   1.025   1.125   1.171   1.109   0.999   1.003   0.916   0.941   0.865   0.884   0.974   0.981   0.922   0.925   0.954   0.961   0.911   0.907   0.869   1.061   1.091   0.941   0.992   1.017   0.945   0.958   0.984   0.897   0.914   0.915   0.909   0.936   1.018   0.900   0.926   0.946   0.944   1.050   1.046   1.095
   201.00    0.985   1.063   1.094   1.051   1.103   1.010   1.017   0.998   0.872   1.008   0.954   0.930   0.947   0.927   0.995   0.925   0.997   1.015   1.058   1.114   1.011   1.096   0.983   1.003   0.918   0.896   1.000   1.003   0.934   1.026   0.960   0.812   0.926   1.013   0.931   0.836   0.871   0.835   1.059   1.067   1.204
   191.00    1.108   1.111   1.074   1.151   1.095   0.991   0.978   0.993   0.971   1.046   0.960   0.831   0.887   1.010   0.984   0.895   0.945   0.999   1.107   1.013   1.024   1.002   0.923   0.913   0.870   0.894   0.951   0.914   0.922   0.908   0.959   0.873   0.918   1.088   1.025   0.933   0.794   0.936   1.224   1.208   1.142
   181.00    1.088   1.236   1.178   1.157   1.054   1.042   0.965   1.012   1.056   1.021   0.990   0.893   0.833   0.968   0.887   0.891   0.881   0.970   1.071   1.002   1.056   0.999   0.946   0.888   0.848   0.897   0.933   0.887   0.913   0.924   0.962   0.913   1.011   0.988   1.065   0.973   0.861   0.931   1.096   1.193   1.106
   171.00    1.024   1.162   1.113   1.091   1.122   1.076   1.089   1.000   0.909   0.877   0.930   0.878   0.887   0.872   0.857   0.852   0.876   0.943   1.044   1.067   1.019   0.932   0.923   0.921   0.926   0.974   1.142   0.994   0.937   0.986   1.048   0.992   0.919   0.994   1.021   1.014   0.878   0.958   1.014   1.105   1.058
   161.00    0.977   1.083   1.065   1.025   1.084   1.013   1.098   0.963   0.996   0.888   0.910   0.846   0.842   0.789   0.850   0.819   0.935   0.933   0.874   1.075   1.070   0.867   0.837   0.884   0.880   0.989   1.146   1.101   0.963   0.939   1.010   1.021   0.959   1.047   1.006   0.980   0.903   0.937   0.975   1.002   0.990
   151.00    0.965   1.024   1.093   1.060   1.022   0.992   1.082   1.064   1.013   0.982   0.915   0.869   0.800   0.902   0.832   0.841   0.924   0.895   0.837   0.992   1.094   1.006   0.923   0.831   0.917   1.066   1.056   1.016   1.005   1.093   1.035   1.014   0.900   1.003   0.996   1.034   0.974   0.963   0.970   0.943   1.024
   141.00    0.929   1.022   1.127   1.076   1.001   1.030   0.970   0.968   1.040   1.029   0.937   0.851   0.882   0.846   0.803   0.854   0.871   0.875   0.870   0.929   1.023   0.926   0.811   0.818   0.957   1.006   0.979   0.895   0.962   1.059   1.073   1.049   1.000   1.054   0.976   1.010   0.908   0.878   0.874   0.854   1.013
   131.00    0.913   1.030   1.149   1.125   1.097   1.077   0.897   0.971   1.021   0.935   0.956   0.862   0.908   0.891   0.894   0.815   0.813   0.841   0.854   0.897   0.998   0.857   0.839   0.815   0.996   0.958   1.016   0.945   0.998   1.062   1.029   1.014   1.037   1.019   1.051   0.972   0.881   0.958   0.877   0.899   1.047
   121.00    1.032   1.072   1.146   1.078   1.091   1.079   1.057   1.073   0.969   1.044   0.962   0.884   0.807   0.803   0.892   0.800   0.852   0.851   0.887   0.924   0.932   0.896   0.813   0.887   0.953   0.933   0.913   0.827   0.972   1.044   0.948   1.002   1.005   1.025   0.996   0.911   0.941   0.893   0.941   0.941   1.054
   111.00    1.042   0.983   1.071   1.139   1.159   1.031   1.040   1.097   1.052   1.080   0.981   0.829   0.813   0.853   0.902   0.849   0.809   0.867   0.927   0.859   0.869   0.842   0.905   0.857   0.916   0.846   0.907   0.956   1.018   1.083   0.977   0.945   1.034   1.049   0.962   0.897   0.904   0.884   0.971   0.936   1.002
   101.00    1.067   1.041   1.035   1.067   1.060   0.990   1.000   1.074   1.003   1.036   0.988   0.856   0.917   1.044   0.894   0.820   0.814   0.923   0.857   0.883   0.879   0.848   0.847   0.849   0.862   0.896   0.946   0.850   0.975   1.103   0.950   0.845   1.051   1.058   1.046   0.945   0.926   0.969   0.904   0.879   0.931
    91.00    1.062   1.006   0.930   1.020   1.042   0.931   0.984   1.042   1.058   1.084   1.009   0.960   1.086   0.977   0.890   0.920   0.824   0.867   0.921   0.929   0.925   0.897   0.914   0.800   0.860   0.976   1.034   0.977   0.977   1.027   0.904   0.872   1.056   1.125   1.067   0.989   0.952   0.936   0.953   0.878   0.833
    81.00    0.992   1.012   1.081   1.035   0.957   0.938   0.922   1.083   1.043   1.044   1.023   1.034   1.099   0.967   0.867   0.872   0.895   0.788   0.861   0.878   0.912   0.905   0.933   0.889   0.880   0.940   0.997   1.012   1.034   0.921   0.843   0.976   0.921   1.075   1.012   0.966   0.934   0.931   0.940   0.968   0.955
    71.00    1.044   0.989   1.046   1.008   0.985   1.016   0.986   1.017   1.051   0.979   0.978   1.069   1.103   1.086   0.949   0.826   0.868   0.908   0.953   0.972   0.930   0.875   0.860   0.891   0.919   0.951   0.937   0.962   0.960   0.830   0.849   0.924   0.829   1.003   0.978   0.963   0.875   0.859   1.006   1.076   1.040
    61.00    0.914   0.984   1.024   1.004   0.978   1.002   0.997   1.084   1.004   1.022   1.012   0.937   1.028   1.079   0.930   0.889   0.913   0.974   0.937   0.965   0.886   0.917   0.862   0.959   0.887   0.882   0.909   0.910   0.899   0.871   0.878   0.820   0.940   1.022   1.007   0.888   0.877   0.966   1.079   1.056   0.988
    51.00    1.028   1.039   0.967   0.953   0.944   0.997   0.954   1.026   1.079   1.067   1.049   0.928   1.000   0.963   0.905   0.944   0.961   0.943   0.933   1.027   0.782   0.894   0.845   0.822   0.973   0.872   0.911   0.857   0.889   0.895   0.856   0.879   0.870   0.915   0.859   0.878   0.961   1.036   1.033   1.012   0.960
    41.00    1.023   0.940   0.982   0.967   0.915   1.008   0.981   1.045   1.069   1.090   0.887   1.004   0.953   0.866   0.931   0.957   1.000   0.862   0.963   0.961   0.980   0.869   0.888   0.830   0.901   0.922   1.005   0.911   0.939   0.864   0.866   0.810   0.808   0.884   0.912   0.878   0.913   0.972   0.925   0.939   0.881
    31.00    1.052   1.038   1.085   0.983   0.964   0.936   0.997   1.068   1.109   1.033   0.997   0.983   0.964   0.986   0.901   0.899   0.927   1.019   0.858   0.925   0.892   0.849   0.872   0.892   0.998   0.988   0.961   0.946   0.849   0.833   0.898   0.946   0.949   0.914   0.904   0.827   0.960   1.020   0.969   0.920   0.870
    21.00    1.051   1.017   1.061   0.996   1.025   0.974   1.027   1.121   1.163   1.069   1.027   0.972   0.905   0.963   0.930   0.920   0.951   0.900   0.943   0.920   0.972   0.838   0.963   1.059   0.961   0.994   1.012   0.957   0.846   0.830   0.925   1.015   0.983   0.927   0.950   0.886   0.954   1.001   1.065   0.912   0.869
    11.00    0.955   1.017   1.002   1.027   1.069   1.030   1.005   1.038   1.061   0.949   1.074   0.975   0.934   0.949   0.927   0.939   0.952   0.831   0.828   0.890   0.958   0.833   0.936   1.003   0.967   1.074   0.920   0.935   0.969   0.830   0.833   0.953   0.972   0.922   0.980   0.975   1.021   1.085   1.117   0.970   0.854
     1.00    0.974   0.977   0.987   1.047   1.026   1.034   0.948   0.932   0.991   1.017   0.990   0.961   0.862   0.918   0.963   1.007   0.878   0.902   0.961   0.887   0.958   0.967   0.983   0.881   0.961   0.924   0.991   0.920   0.965   0.870   0.871   0.963   1.019   0.905   0.925   0.928   0.950   0.960   1.050   1.039   0.910

   Mean standard deviation across all grid points:
      u component:    0.947 m/s
      v component:    0.995 m/s
      w component:    0.978 m/s


U-component (X) statistics from the interpolated hub point:

   Mean =  10.0066 m/s
   TI   =   9.0229 %


Processing complete.  8.5469 CPU seconds used.
