
This summary file was generated by TurbSim (from OpenFAST-v3.4.1) on 25-Nov-2024 at 22:23:33.


Runtime Options:

      2033  Random seed #1
         0  Random seed #2
         F  Output binary HH turbulence parameters?
         F  Output formatted turbulence parameters?
         F  Output AeroDyn HH files?
         T  Output AeroDyn FF files?
         F  Output BLADED FF files?
         F  Output tower data?
         F  Output HAWC FF files?
         F  Output formatted FF files?
         T  Output coherent turbulence time step file?
 0 -  NONE  IEC turbulence models scaled to exact specified standard deviation


Turbine/Model Specifications:

        31  Vertical grid-point matrix dimension
        41  Horizontal grid-point matrix dimension
     0.100  Time step [seconds]
   200.000  Analysis time [seconds]
   200.000  Usable output time [seconds]
   151.000  Hub height [m]
   300.000  Grid height [m]
   600.000  Grid width [m]
     0.000  Vertical flow angle [degrees]
     0.000  Horizontal flow angle [degrees]


Meteorological Boundary Conditions:

    IECVKM  IEC von Karman spectral model
         1  IEC standard: IEC 61400-1 Ed. 2: 1999
    10.000  Percent turbulence intensity, IEC 61400-1 Ed. 2: 1999
       NTM  IEC Normal Turbulence Model
       N/A  IEC Extreme Turbulence Model (ETM) "c" parameter [m/s]
       PL   Wind profile type
   150.000  Reference height [m]
    10.000  Reference wind speed [m/s]
       N/A  Jet height [m]
     0.100  Power law exponent
     0.030  Surface roughness length [m]


Non-IEC Meteorological Boundary Conditions:

       N/A  Site latitude [degrees]
       N/A  Gradient Richardson number
       N/A  Friction or shear velocity [m/s]
       N/A  Mixing layer depth [m]
       N/A  Mean hub u'w' Reynolds stress
       N/A  Mean hub u'v' Reynolds stress
       N/A  Mean hub v'w' Reynolds stress


Spatial Coherence Models:

       IEC  u-component coherence model
       IEC  v-component coherence model
       IEC  w-component coherence model
(   12.000, 0.659E-03)  u-component coherence parameters
(   12.000, 0.659E-03)  v-component coherence parameters
(   12.000, 0.659E-03)  w-component coherence parameters
       N/A  Coherence exponent


You have requested that the following file(s) be generated:

   ./TurbulentWind_20WT/FOWTs/Wind\InflowWind_High_WT9.bts (AeroDyn/TurbSim full-field wind file)


Turbulence Simulation Scaling Parameter Summary:

   Turbulence model used                            =  IEC von Karman
   Turbulence characteristic                        =  User-specified
   IEC standard                                     =  IEC 61400-1 Ed. 2: 1999
   Mean wind speed at hub height                    =   10.007 m/s
   Characteristic value of standard deviation       =    1.001 m/s
   Turbulence scale                                 =   21.000 m
   Isotropic integral scale                         =   73.500 m
   Characteristic value of hub turbulence intensity =   10.000%
   Gradient Richardson number                       =    0.000

   Wind profile type                                =  Power law
   Power law exponent                               =    0.100
   Mean shear across rotor disk                     =    0.016 (m/s)/m
   Assumed rotor diameter                           =  300.000 m
   Surface roughness length                         =    0.030 m

   Nyquist frequency of turbulent wind field        =    5.000 Hz

   Number of time steps in the FFT                  =     2600
   Number of time steps output                      =     2600
   Number of points simulated                       =     1271


Mean Flow Angles:

   Vertical   =   0.0 degrees
   Horizontal =   0.0 degrees

Mean Wind Speed Profile:

   Height    Wind Speed   Horizontal Angle  Vertical Angle  U-comp (X)   V-comp (Y)   W-comp (Z)
     (m)        (m/s)         (degrees)       (degrees)       (m/s)        (m/s)        (m/s)   
   ------    ----------   ----------------  --------------  ----------   ----------   ----------
    301.0       10.72            0.00            0.00         10.72         0.00         0.00
    291.0       10.69            0.00            0.00         10.69         0.00         0.00
    281.0       10.65            0.00            0.00         10.65         0.00         0.00
    271.0       10.61            0.00            0.00         10.61         0.00         0.00
    261.0       10.57            0.00            0.00         10.57         0.00         0.00
    251.0       10.53            0.00            0.00         10.53         0.00         0.00
    241.0       10.49            0.00            0.00         10.49         0.00         0.00
    231.0       10.44            0.00            0.00         10.44         0.00         0.00
    221.0       10.40            0.00            0.00         10.40         0.00         0.00
    211.0       10.35            0.00            0.00         10.35         0.00         0.00
    201.0       10.30            0.00            0.00         10.30         0.00         0.00
    191.0       10.24            0.00            0.00         10.24         0.00         0.00
    181.0       10.19            0.00            0.00         10.19         0.00         0.00
    171.0       10.13            0.00            0.00         10.13         0.00         0.00
    161.0       10.07            0.00            0.00         10.07         0.00         0.00
    151.0       10.01            0.00            0.00         10.01         0.00         0.00
    141.0        9.94            0.00            0.00          9.94         0.00         0.00
    131.0        9.87            0.00            0.00          9.87         0.00         0.00
    121.0        9.79            0.00            0.00          9.79         0.00         0.00
    111.0        9.70            0.00            0.00          9.70         0.00         0.00
    101.0        9.61            0.00            0.00          9.61         0.00         0.00
     91.0        9.51            0.00            0.00          9.51         0.00         0.00
     81.0        9.40            0.00            0.00          9.40         0.00         0.00
     71.0        9.28            0.00            0.00          9.28         0.00         0.00
     61.0        9.14            0.00            0.00          9.14         0.00         0.00
     51.0        8.98            0.00            0.00          8.98         0.00         0.00
     41.0        8.78            0.00            0.00          8.78         0.00         0.00
     31.0        8.54            0.00            0.00          8.54         0.00         0.00
     21.0        8.22            0.00            0.00          8.22         0.00         0.00
     11.0        7.70            0.00            0.00          7.70         0.00         0.00
      1.0        6.06            0.00            0.00          6.06         0.00         0.00


Harvested Random Seeds after Generation of the Random Numbers:

   1400112015 Harvested seed # 1
   1971657505 Harvested seed # 2


Hub-Height Simulated Turbulence Statistical Summary:

   Type of Wind        Min (m/s)   Mean (m/s)    Max (m/s)  Sigma (m/s)       TI (%)
   ----------------    ---------   ----------    ---------  -----------       ------
   Longitudinal (u)         6.41        10.01        13.02        1.099       10.980
   Lateral (v)             -3.49        -0.00         2.58        1.033       10.328
   Vertical (w)            -2.81         0.00         2.91        0.983        9.826
   U component              6.41        10.01        13.02        1.099       10.980
   V component             -3.49        -0.00         2.58        1.033       10.328
   W component             -2.81         0.00         2.91        0.983        9.826
   Horizontal (U&V)         6.41        10.06        13.12        1.101       10.946
   Total                    6.53        10.11        13.12        1.083       10.718

                       Min Reynolds     Mean Reynolds    Max Reynolds    Correlation
   Product             Stress (m/s)^2   Stress (m/s)^2   Stress (m/s)^2  Coefficient
   ----------------    --------------   --------------   --------------  -----------
   u'w'                     -3.253             0.350             7.101         0.324
   u'v'                     -6.308             0.011             5.040         0.009
   v'w'                     -4.339             0.010             4.778         0.010


   Friction Velocity (Ustar)  =      0.591 m/s
   Maximum Instantaneous TKE  =      7.867 (m/s)^2
   Maximum Instantaneous CTKE =      3.734 (m/s)^2


Grid Point Variance Summary:

   Y-coord -300.00 -285.00 -270.00 -255.00 -240.00 -225.00 -210.00 -195.00 -180.00 -165.00 -150.00 -135.00 -120.00 -105.00  -90.00  -75.00  -60.00  -45.00  -30.00  -15.00    0.00   15.00   30.00   45.00   60.00   75.00   90.00  105.00  120.00  135.00  150.00  165.00  180.00  195.00  210.00  225.00  240.00  255.00  270.00  285.00  300.00

   Height   Standard deviation at grid points for the u component:
   301.00    0.995   0.982   0.742   0.873   0.938   1.039   0.968   1.032   0.876   0.877   0.976   0.975   1.003   0.995   0.915   0.936   0.993   0.861   0.842   0.912   0.781   0.875   1.018   0.921   0.904   0.942   0.789   0.861   0.809   0.863   1.070   1.011   0.939   0.980   1.000   0.887   0.985   0.912   0.917   0.841   0.923
   291.00    0.959   0.924   0.766   0.788   0.934   1.019   0.943   0.961   0.897   0.846   0.863   0.985   0.869   0.904   0.906   0.953   0.884   0.908   0.879   0.812   0.923   0.863   0.935   0.910   1.027   0.862   0.808   0.914   0.962   0.963   1.107   1.140   1.035   0.949   0.838   0.960   0.970   0.892   0.965   0.857   0.856
   281.00    0.996   0.920   0.823   0.754   0.930   1.022   1.080   0.947   0.937   0.888   0.801   0.842   0.831   0.885   0.833   0.867   0.879   0.904   1.017   0.906   0.977   0.938   0.881   0.889   0.863   1.044   0.879   0.944   0.918   0.947   1.079   1.116   1.086   0.951   0.795   0.896   0.949   0.795   0.922   0.854   0.842
   271.00    0.914   0.857   0.709   0.783   0.982   1.078   1.076   1.044   0.925   0.818   0.866   0.824   0.803   0.851   0.818   0.871   0.890   0.913   0.967   1.011   0.890   0.930   0.860   0.837   0.864   0.984   1.018   1.043   1.036   0.992   1.039   1.098   1.026   1.017   0.829   0.805   0.879   0.861   0.870   0.881   0.916
   261.00    1.019   0.757   0.783   0.870   0.952   1.206   1.163   0.961   0.888   0.932   0.921   0.970   0.842   0.949   0.861   0.862   0.916   1.008   1.028   1.062   0.847   0.733   0.796   0.811   0.887   0.959   1.106   1.113   1.116   1.078   0.999   1.004   1.049   1.032   0.878   0.855   0.831   0.948   0.847   0.895   0.923
   251.00    0.966   0.817   0.906   0.864   0.983   1.239   1.284   1.012   0.907   0.977   0.976   0.986   0.935   0.893   0.870   0.987   1.060   1.116   1.017   0.961   0.852   0.849   0.861   0.776   0.940   0.985   1.153   1.061   1.069   1.035   1.083   1.190   1.115   1.005   0.867   0.833   0.798   0.888   0.899   0.848   0.857
   241.00    0.937   0.791   0.892   0.969   1.005   1.200   1.168   1.027   1.004   0.913   1.047   0.989   0.891   0.915   0.876   0.942   1.010   1.000   1.050   0.916   0.968   0.878   0.817   0.850   0.962   1.020   1.070   1.152   1.125   1.095   1.121   1.135   1.124   0.973   0.885   0.808   0.854   0.829   0.838   0.914   0.968
   231.00    0.903   0.840   0.905   0.899   1.021   1.109   1.154   1.011   0.962   0.983   0.955   0.905   0.981   0.907   0.958   1.079   1.004   0.914   0.956   0.983   0.912   0.853   0.846   0.899   1.085   1.047   1.068   1.067   1.007   1.070   1.085   1.048   1.045   0.892   0.902   0.910   0.824   0.935   0.812   0.907   1.008
   221.00    0.810   0.846   0.900   0.949   0.988   1.025   1.150   1.057   0.853   1.007   1.034   0.936   0.959   0.956   0.954   1.024   0.926   0.840   0.891   0.945   0.981   0.866   0.942   0.983   1.008   1.005   0.943   1.005   0.989   0.962   0.983   0.972   1.022   0.932   0.877   0.911   0.904   0.890   0.917   0.948   1.139
   211.00    0.861   0.963   0.907   0.864   0.999   1.073   1.056   1.025   0.993   1.027   1.018   1.038   0.948   1.055   1.095   0.942   0.932   0.705   0.953   1.036   0.886   0.843   0.756   0.876   0.897   0.953   1.010   1.158   0.893   0.953   0.868   0.966   0.936   0.861   0.876   0.812   0.850   0.906   0.804   0.955   1.152
   201.00    0.891   0.899   0.901   0.908   0.970   0.979   1.023   1.055   1.031   1.032   0.995   0.920   0.987   1.108   1.046   1.040   0.824   0.797   0.919   1.027   0.983   0.869   0.776   0.845   0.900   0.885   1.081   1.128   0.928   0.966   0.944   0.946   0.931   0.835   0.884   0.820   0.766   0.844   0.900   1.033   1.070
   191.00    0.804   0.918   0.910   0.903   0.851   0.879   0.938   1.111   1.126   1.090   1.051   0.962   0.946   1.024   1.071   0.988   0.899   0.738   0.903   1.047   1.022   0.910   0.847   0.949   0.956   0.884   1.052   1.038   0.987   0.904   0.918   0.914   0.823   0.927   0.862   0.880   0.878   0.884   0.917   1.020   1.035
   181.00    0.737   0.975   0.997   0.892   0.838   0.934   1.036   1.057   1.106   1.070   1.083   0.915   0.948   1.048   1.015   0.997   0.912   0.746   0.848   1.065   1.118   1.108   0.873   1.028   0.940   0.885   1.057   1.036   0.965   0.955   0.898   0.944   0.865   0.993   1.006   0.860   0.867   0.803   0.876   0.903   0.989
   171.00    0.915   0.978   0.975   0.813   0.878   0.946   1.021   1.038   1.077   1.128   1.049   1.068   1.052   1.048   1.026   1.009   0.973   0.963   1.019   1.071   1.163   1.148   0.962   0.999   0.910   0.874   1.000   0.966   1.020   0.938   0.960   0.967   0.955   0.998   0.967   0.933   0.858   0.851   0.839   0.890   0.850
   161.00    0.948   0.989   0.984   0.816   0.977   1.066   1.153   1.113   1.158   1.071   1.126   1.008   1.015   0.912   0.930   0.909   0.940   0.900   1.000   0.984   1.053   1.173   0.921   0.922   0.912   0.882   0.963   0.834   0.951   0.947   1.052   0.995   0.988   0.916   0.899   0.775   0.737   0.880   0.851   1.022   0.991
   151.00    1.018   0.922   0.879   0.861   0.971   0.972   1.124   1.109   1.251   1.118   1.094   1.127   1.119   0.977   1.037   0.974   0.921   0.941   0.985   0.939   1.099   1.144   0.885   0.989   0.880   0.886   0.882   0.877   1.039   0.946   0.941   0.854   0.904   0.919   0.832   0.710   0.801   0.876   0.875   1.001   0.952
   141.00    1.056   1.018   0.992   0.936   0.941   1.002   1.074   1.262   1.361   1.361   1.151   1.075   1.084   0.998   0.975   0.861   0.902   0.832   0.902   1.008   0.991   1.024   0.988   0.941   0.868   0.817   0.780   0.915   0.910   1.067   0.893   0.912   0.813   0.862   0.956   0.830   0.919   0.998   0.956   1.047   1.071
   131.00    1.073   0.934   0.985   0.911   0.994   1.089   1.251   1.216   1.267   1.255   1.234   1.111   1.031   1.011   0.871   0.836   0.845   0.813   0.896   0.957   0.986   1.128   0.935   0.837   0.911   0.800   0.867   0.958   1.030   0.995   0.947   0.834   0.850   0.844   0.831   0.800   0.811   0.790   0.913   1.035   1.071
   121.00    0.954   0.876   1.023   1.097   1.034   1.086   1.137   1.187   1.089   1.140   1.120   1.051   1.003   0.902   0.880   0.822   0.809   0.939   1.049   1.036   1.015   1.078   1.004   0.904   0.966   0.915   0.997   1.038   1.037   1.041   1.097   0.937   0.801   0.817   0.923   0.761   0.830   0.915   1.059   0.984   1.058
   111.00    0.869   0.877   1.027   1.097   1.118   0.992   1.042   1.087   1.101   1.202   1.019   1.016   0.903   0.938   0.960   1.024   0.991   0.947   1.004   1.015   1.139   1.160   1.015   1.036   0.977   1.043   0.890   0.961   1.068   1.054   1.111   1.007   0.882   0.986   0.954   0.839   0.846   0.967   0.962   0.894   0.950
   101.00    0.974   0.923   1.007   1.011   1.120   1.042   0.983   1.033   1.067   1.134   1.070   0.984   0.963   0.991   0.905   0.842   0.976   0.850   1.018   1.197   1.125   1.039   1.078   1.030   1.015   0.979   0.886   1.022   1.143   1.166   0.935   0.985   0.836   0.946   1.020   0.911   0.848   0.859   0.938   0.921   0.966
    91.00    1.057   0.975   0.976   1.017   0.958   1.009   0.934   0.985   1.176   1.176   1.095   1.064   0.980   0.954   0.900   0.890   0.922   0.936   1.114   1.194   1.134   1.113   0.999   1.008   0.972   0.983   0.942   0.887   1.101   1.059   1.011   1.003   1.037   1.010   0.964   1.016   0.885   0.881   0.950   0.974   0.801
    81.00    1.044   0.938   0.857   1.001   0.993   0.994   0.884   1.014   1.050   1.027   1.006   0.973   0.973   0.873   0.905   0.964   0.917   0.997   1.098   1.130   1.086   1.048   1.015   0.996   0.915   1.044   0.881   1.042   1.104   0.962   1.012   0.973   1.070   0.999   0.970   1.074   0.941   0.878   0.835   0.840   0.880
    71.00    1.039   0.897   0.859   0.973   0.988   0.841   0.959   0.915   1.002   0.995   0.927   0.937   0.878   0.917   0.995   1.044   1.111   0.989   1.061   1.018   1.135   1.118   1.099   1.016   0.886   0.994   0.960   0.971   1.045   0.968   0.958   1.107   1.076   0.917   0.983   1.089   0.937   1.058   1.024   0.941   0.862
    61.00    0.918   0.837   0.858   0.911   0.966   0.886   0.942   0.930   1.048   0.969   0.928   0.821   0.880   0.926   1.060   0.997   1.010   0.908   1.036   0.984   0.956   1.047   1.054   1.043   0.978   0.957   1.051   0.996   0.931   0.977   0.900   1.010   0.959   0.958   1.050   1.035   0.917   0.988   1.073   1.117   0.915
    51.00    0.938   0.875   0.768   0.904   0.984   0.896   0.855   1.026   1.016   0.963   1.007   0.967   0.898   0.951   1.006   0.999   0.953   0.873   1.077   0.928   0.925   1.106   0.967   0.917   0.836   0.904   0.958   0.983   0.854   0.846   0.896   0.917   0.922   0.925   0.887   0.948   0.985   1.000   1.009   1.012   0.977
    41.00    1.106   1.025   1.074   1.021   1.020   0.919   0.884   1.088   1.083   1.006   0.969   1.089   0.964   0.929   0.924   0.942   0.904   0.954   1.138   1.071   1.108   1.053   0.916   0.887   0.807   0.810   0.912   0.954   0.952   0.967   0.920   0.961   0.994   0.848   0.894   0.941   0.944   0.942   0.976   0.929   0.907
    31.00    0.989   1.093   1.057   1.203   1.039   0.959   0.894   1.011   0.989   0.931   0.946   1.053   0.976   0.888   0.812   0.895   0.877   1.016   1.095   1.084   1.136   1.077   1.073   0.903   0.873   0.903   0.863   1.014   1.040   0.938   0.975   0.924   1.055   1.000   1.058   0.984   0.833   0.890   0.946   0.843   0.786
    21.00    1.041   0.982   1.093   1.052   1.199   0.953   0.879   0.899   0.913   0.910   0.907   1.004   0.953   0.828   0.826   0.996   0.925   1.058   1.030   1.128   1.026   1.154   1.014   0.920   1.000   0.924   1.071   1.019   1.009   0.807   0.887   1.070   1.005   1.052   0.978   0.966   0.879   0.938   0.850   0.759   0.793
    11.00    1.006   0.973   1.027   1.083   1.097   1.038   0.926   0.925   0.994   0.968   0.984   0.954   0.967   0.868   0.950   0.917   1.038   1.102   0.901   0.973   1.131   1.026   0.923   1.025   1.001   0.978   1.030   1.026   1.099   0.876   0.872   1.045   0.928   0.959   0.979   0.900   0.867   0.824   0.813   0.766   0.845
     1.00    0.963   0.994   1.001   1.098   0.970   0.980   0.900   0.891   0.984   1.043   1.066   1.080   1.069   0.922   0.962   0.969   0.981   1.032   1.016   0.987   1.022   0.984   0.997   1.023   0.892   0.941   0.963   1.004   1.053   0.961   0.946   1.031   1.005   0.951   0.946   0.833   0.868   0.870   0.756   0.838   0.843

   Height   Standard deviation at grid points for the v component:
   301.00    1.148   1.126   1.098   1.056   1.131   0.917   0.858   0.994   0.960   0.990   0.911   1.104   1.011   0.986   0.941   0.984   0.988   0.988   1.006   0.980   1.008   1.039   1.140   1.150   1.137   1.066   1.178   1.165   1.232   1.263   1.187   1.048   0.925   0.902   0.879   0.878   0.922   0.935   0.939   0.938   1.050
   291.00    1.166   1.114   1.231   1.040   1.173   0.871   1.014   0.987   0.996   1.031   1.094   1.108   0.973   0.864   0.852   0.966   0.907   1.007   0.969   0.971   1.042   0.987   1.147   1.104   1.200   1.117   1.121   1.166   1.236   1.073   1.077   1.001   0.910   0.899   0.994   0.891   0.957   0.999   0.947   0.984   0.995
   281.00    1.102   1.149   1.170   1.199   1.172   0.952   0.968   0.935   1.043   1.019   1.010   0.998   1.044   0.924   0.943   1.024   0.968   0.999   0.932   0.910   0.986   0.990   1.149   1.163   1.130   1.127   1.052   1.096   1.176   1.119   1.009   0.957   0.935   0.940   1.014   0.909   0.935   0.872   0.940   1.044   0.943
   271.00    1.153   1.165   1.147   1.077   1.014   1.005   1.081   0.966   0.998   1.016   0.993   0.995   0.969   0.853   0.928   1.083   1.002   1.090   1.011   0.991   1.078   0.974   1.055   1.060   1.004   1.089   1.033   1.087   1.084   1.061   0.886   0.934   0.951   0.956   0.954   0.931   0.941   0.924   0.948   0.959   0.997
   261.00    1.170   1.195   1.278   1.130   1.060   0.991   0.951   0.960   0.969   0.957   0.978   1.034   0.965   0.874   1.018   0.964   1.011   0.994   1.056   0.934   0.975   0.974   0.995   0.998   0.984   1.007   1.093   1.013   1.001   0.995   0.906   0.941   0.943   0.910   0.949   0.971   0.905   0.908   0.976   1.051   0.982
   251.00    1.142   1.115   1.268   1.135   0.997   0.973   0.947   1.037   1.061   1.006   0.951   0.955   0.913   0.926   0.988   0.988   0.982   1.077   1.054   1.062   0.984   0.980   0.989   0.902   0.957   1.103   1.138   1.142   0.961   1.007   0.981   0.944   0.868   1.013   0.914   0.940   0.966   1.009   1.015   1.038   1.012
   241.00    1.102   1.089   1.194   1.051   1.001   0.974   1.040   1.096   1.112   1.061   1.085   0.997   0.892   0.927   1.003   1.009   0.919   1.012   0.951   1.100   0.957   0.933   0.908   0.946   1.043   1.094   1.186   1.015   1.000   0.981   0.961   1.002   1.019   1.097   0.852   0.946   0.868   1.002   0.983   1.059   0.916
   231.00    0.968   1.077   1.152   1.055   0.989   0.949   1.025   1.039   1.093   1.060   1.008   0.905   0.929   0.970   1.041   0.957   0.949   1.050   1.135   1.068   0.971   1.012   0.950   1.041   1.055   1.136   1.126   1.125   1.013   1.098   1.002   1.014   1.026   1.025   0.970   0.872   0.893   0.993   1.085   1.125   0.972
   221.00    1.040   1.049   1.142   1.154   0.939   0.988   1.154   1.061   0.990   1.016   1.061   1.003   0.996   1.055   0.971   0.962   0.945   1.031   1.080   0.963   1.023   0.993   0.952   0.962   0.984   1.057   1.158   1.207   1.075   1.020   1.138   0.933   1.013   0.940   0.825   0.849   1.010   0.991   1.139   1.067   0.938
   211.00    0.934   1.032   1.189   1.213   1.002   0.986   1.135   1.085   1.085   1.130   1.026   0.913   0.949   1.005   0.999   1.023   1.061   0.991   1.016   0.989   0.919   1.049   0.967   0.926   0.915   1.128   1.185   1.105   1.168   1.133   1.134   1.070   1.013   0.911   0.846   0.910   0.916   1.080   1.122   1.060   1.006
   201.00    0.858   1.001   1.032   1.114   0.973   0.923   1.047   1.061   1.056   1.075   0.884   0.988   0.923   0.956   1.073   1.026   1.089   1.102   1.154   1.020   1.077   1.082   0.921   0.875   1.001   1.141   1.251   1.190   1.111   1.156   1.101   1.078   1.017   0.858   0.865   0.930   0.945   1.039   1.065   0.967   0.955
   191.00    0.918   1.010   1.034   1.122   1.055   0.983   1.074   1.074   1.080   1.088   0.878   0.920   0.883   0.950   1.028   1.051   1.032   1.123   1.119   1.062   1.037   1.058   0.971   0.989   1.113   1.121   1.130   1.109   1.148   1.045   0.966   0.993   0.995   0.856   0.971   0.919   0.996   0.984   1.081   0.948   0.892
   181.00    0.898   1.068   1.121   1.062   1.084   1.024   0.996   1.077   1.048   1.043   0.917   0.952   0.833   0.915   1.040   1.111   1.119   1.104   1.071   1.034   1.070   0.953   1.024   0.991   0.997   1.068   1.082   1.096   1.105   1.002   0.987   0.963   0.954   0.909   0.926   0.946   1.043   1.067   1.104   1.004   1.019
   171.00    0.984   1.042   1.050   1.050   0.985   1.015   1.004   1.161   1.059   0.996   0.988   0.961   0.843   0.933   1.050   1.136   1.016   1.134   1.149   1.093   1.091   1.022   0.961   1.006   0.970   1.147   1.146   1.144   1.027   1.016   0.894   0.877   0.929   0.886   0.941   0.957   1.023   0.943   1.011   0.968   1.073
   161.00    0.917   0.948   0.910   1.019   1.046   0.976   1.040   1.084   0.959   0.992   0.974   0.932   0.942   1.048   1.016   0.996   1.082   1.115   1.073   1.020   1.085   1.056   0.969   1.075   1.004   1.057   1.112   1.069   1.078   0.899   0.952   0.915   0.830   0.823   0.999   1.000   1.084   0.968   0.960   1.003   0.988
   151.00    0.950   0.972   0.997   1.048   1.061   0.991   1.001   0.952   0.930   1.002   0.940   0.944   1.023   1.042   0.997   0.991   1.088   0.992   1.076   0.960   1.033   1.070   0.962   1.038   1.070   1.022   1.088   1.022   0.969   0.979   0.818   0.845   0.833   0.863   0.883   0.841   1.015   1.039   1.011   0.998   0.973
   141.00    0.906   0.899   1.042   1.022   1.016   1.002   0.970   0.980   0.914   0.980   0.973   0.996   1.100   1.080   0.960   1.074   1.071   0.957   1.047   1.069   1.204   1.207   0.931   1.040   0.995   1.051   1.180   1.006   0.946   0.999   0.869   0.805   0.932   0.928   0.864   0.841   1.001   1.012   1.005   0.984   0.888
   131.00    0.965   0.918   0.992   0.969   0.926   0.997   0.971   0.983   1.015   0.880   0.987   1.079   1.089   1.056   1.029   1.010   1.035   0.988   1.027   1.066   1.171   1.169   1.033   0.987   0.999   1.059   1.099   1.050   1.034   1.073   0.848   0.806   0.827   0.933   0.849   0.926   1.099   1.000   0.925   0.981   0.826
   121.00    1.037   0.869   1.017   0.954   0.938   0.900   0.950   0.938   1.025   0.922   1.044   1.107   1.147   0.926   1.023   0.984   0.984   0.985   1.045   1.008   1.125   1.050   1.008   1.038   0.926   1.012   1.030   0.955   1.006   0.959   0.909   0.875   0.807   0.977   0.911   0.973   0.982   1.097   1.008   1.012   0.990
   111.00    1.063   0.997   0.869   0.895   0.970   0.993   1.088   1.025   0.960   0.953   1.016   0.992   1.017   0.978   0.997   0.976   0.938   1.021   0.922   0.925   0.975   1.001   1.027   0.984   0.858   0.979   0.961   0.912   0.978   0.934   0.887   0.838   0.966   0.917   0.979   1.004   1.087   1.122   0.964   1.014   0.992
   101.00    1.062   0.985   0.884   0.881   0.972   1.104   0.999   0.960   1.016   1.025   1.053   1.008   0.989   0.978   0.971   0.859   0.838   0.892   0.962   0.996   0.957   0.995   1.020   1.059   1.018   1.023   0.971   0.988   1.044   0.925   0.988   0.969   0.933   0.989   0.940   0.979   1.046   1.023   1.045   0.980   0.951
    91.00    1.124   1.016   0.969   0.891   1.049   1.113   0.973   1.005   0.940   1.068   1.011   0.921   0.945   1.002   0.962   0.936   0.888   0.877   0.923   0.896   0.905   0.943   0.978   1.004   1.091   0.954   0.971   1.019   1.133   0.984   0.944   0.923   0.926   1.045   0.961   1.013   0.982   1.095   1.001   1.008   0.973
    81.00    1.024   0.952   0.916   0.844   1.040   1.021   1.059   0.944   0.939   1.016   1.017   0.998   0.938   0.902   0.803   0.871   0.853   0.865   0.946   0.907   0.803   0.964   0.955   0.952   1.015   1.059   0.996   1.050   1.085   0.971   0.877   0.884   0.983   1.008   0.999   0.990   0.921   0.938   1.080   1.043   0.936
    71.00    0.993   0.945   0.846   0.911   0.956   1.055   1.005   0.997   0.980   0.951   1.004   0.874   0.897   0.911   0.917   0.860   0.943   0.910   0.939   0.946   0.944   0.868   1.018   0.967   0.931   1.012   0.994   1.029   0.933   0.867   0.884   0.876   0.895   0.953   0.987   1.054   0.965   0.901   1.016   1.079   0.980
    61.00    0.962   0.829   0.841   0.848   0.904   1.004   1.019   0.992   0.916   0.830   0.829   0.951   0.838   0.904   0.966   0.873   0.898   0.917   0.862   1.015   1.051   0.996   1.028   0.937   0.890   1.058   1.100   0.975   0.905   0.857   0.879   0.972   0.906   0.925   0.920   1.048   1.044   0.973   1.009   0.992   0.979
    51.00    0.980   0.875   0.918   0.868   0.973   0.950   1.010   0.984   0.895   0.775   0.822   0.911   0.960   0.855   0.962   0.991   0.951   0.987   0.938   0.987   1.073   1.067   1.020   0.972   0.886   0.999   1.051   0.959   0.928   0.896   0.858   0.967   0.941   0.837   0.960   1.019   0.991   0.974   1.041   0.930   0.990
    41.00    1.070   0.895   0.878   0.961   1.031   1.025   1.028   1.007   0.922   0.869   0.791   0.808   0.908   0.892   0.913   1.013   0.872   0.999   1.008   1.114   1.066   1.124   1.011   0.994   0.972   1.052   0.958   0.970   0.957   0.986   1.024   0.960   0.976   0.951   0.860   0.957   0.916   0.885   0.885   0.922   0.968
    31.00    0.942   0.933   0.967   0.977   1.051   1.023   0.918   0.981   0.864   0.865   0.843   0.838   0.933   0.961   0.971   0.966   0.922   0.932   0.931   0.997   1.000   1.017   0.988   0.929   0.964   0.980   0.936   0.995   0.912   1.029   0.930   0.955   1.010   0.911   0.900   0.905   0.891   0.973   0.816   0.908   0.905
    21.00    0.981   1.040   0.928   0.962   1.059   0.987   0.920   0.970   0.905   0.933   0.806   0.781   0.816   1.008   1.025   0.890   0.941   0.933   0.982   0.894   0.993   1.092   0.990   0.972   0.945   0.953   1.007   1.039   1.032   1.073   1.013   0.980   1.050   0.956   0.868   0.936   0.876   0.879   0.851   0.933   0.870
    11.00    0.966   1.013   1.030   0.945   0.942   1.015   1.067   0.998   0.945   0.889   0.920   0.824   0.899   1.007   0.996   0.954   0.920   0.869   0.914   0.937   1.003   1.008   0.981   1.008   0.998   0.891   0.937   0.949   0.975   0.924   0.996   0.977   1.037   1.066   0.946   0.898   0.926   0.942   0.953   0.871   0.832
     1.00    0.974   1.036   1.059   0.998   1.092   1.057   1.082   0.979   0.998   0.961   0.951   0.899   0.952   0.995   1.032   0.921   0.998   0.962   0.991   1.047   1.007   1.047   1.001   0.968   0.998   0.895   0.954   1.030   0.983   0.868   1.003   0.980   1.083   0.974   0.926   1.046   0.885   0.933   0.916   0.828   0.896

   Height   Standard deviation at grid points for the w component:
   301.00    1.041   0.937   0.907   0.946   1.022   1.062   1.089   0.994   0.872   0.907   0.884   0.965   1.043   1.049   1.000   1.081   0.955   1.027   0.995   1.081   1.115   1.120   1.105   1.048   0.984   0.999   0.978   0.935   1.094   1.119   0.921   0.910   0.986   1.031   1.132   1.110   1.086   1.223   0.993   1.044   0.978
   291.00    0.999   1.061   0.885   0.973   1.049   1.011   1.099   0.920   0.862   0.939   0.879   1.014   1.037   1.047   1.045   0.962   1.027   0.974   0.938   1.008   1.056   1.009   1.060   1.014   1.026   0.946   0.896   0.965   1.074   1.156   1.021   0.992   1.100   1.132   1.162   1.061   0.999   0.962   1.066   1.027   0.910
   281.00    1.030   1.104   0.951   1.003   0.985   0.964   1.017   0.937   0.868   0.806   0.949   1.033   1.003   1.019   1.048   1.041   0.947   0.892   0.972   0.931   0.992   1.032   1.034   1.019   1.000   0.927   0.952   1.023   0.979   1.038   1.053   1.069   1.069   1.122   1.039   1.038   1.068   0.972   0.910   1.032   0.916
   271.00    1.040   1.082   1.011   1.003   1.068   0.980   0.995   0.880   0.893   0.925   1.057   1.081   0.951   0.945   0.981   0.933   1.015   0.977   1.019   0.933   1.023   1.030   1.022   1.011   0.911   0.926   0.964   1.127   1.051   0.989   0.972   1.054   1.041   1.094   0.988   1.008   1.006   0.945   0.980   0.960   0.916
   261.00    0.979   0.979   0.979   1.008   1.068   0.921   0.918   0.871   0.928   0.885   1.089   0.988   0.961   0.932   0.908   0.912   0.887   0.938   0.959   0.949   1.131   1.085   0.986   1.049   1.009   1.027   0.986   1.021   1.006   0.955   0.950   1.065   1.049   1.094   0.993   0.947   0.923   0.919   0.988   0.944   0.959
   251.00    1.070   1.057   0.994   1.003   1.019   0.896   0.784   0.796   0.980   1.023   1.007   1.092   0.929   0.891   0.958   0.916   0.964   0.895   0.963   1.011   1.020   0.992   1.011   0.940   1.065   1.039   1.032   1.010   0.921   1.050   0.919   0.998   0.998   1.036   0.958   0.918   1.049   0.989   0.981   0.989   0.968
   241.00    1.008   1.013   1.037   0.908   0.898   0.880   0.815   0.903   1.079   1.061   0.995   0.981   0.906   1.005   1.018   0.860   0.917   0.966   0.850   1.018   1.019   0.935   0.877   0.954   1.002   1.091   0.987   0.886   0.882   0.969   0.980   0.904   0.999   1.071   1.039   1.015   1.060   0.962   1.020   0.983   1.015
   231.00    1.013   0.931   0.914   0.989   0.878   0.881   0.833   0.921   1.000   0.989   0.995   1.061   0.970   1.003   0.971   0.925   0.879   0.850   0.962   1.073   0.986   1.042   0.981   0.941   1.023   1.048   0.959   0.857   0.834   0.971   1.039   1.004   0.996   0.990   0.893   0.970   1.064   1.010   1.024   0.941   1.075
   221.00    1.029   0.976   0.914   0.957   1.003   0.864   0.851   0.873   0.910   0.937   1.030   0.942   1.014   0.958   1.012   0.927   0.886   0.909   0.941   0.970   0.886   0.963   0.974   0.978   1.046   0.985   1.031   1.051   1.035   1.104   1.043   1.079   1.070   0.880   0.971   0.866   0.917   0.953   0.916   1.018   1.058
   211.00    0.954   0.889   0.947   1.017   1.013   0.978   0.962   0.840   0.929   0.892   0.889   0.961   1.043   1.062   1.036   0.959   1.044   0.859   0.893   0.907   0.867   0.821   0.915   0.949   1.004   0.947   0.996   1.044   1.052   1.055   1.096   1.056   1.081   1.026   0.998   0.882   0.892   0.915   0.902   0.962   0.999
   201.00    0.948   0.942   0.930   1.041   1.010   0.951   1.013   0.898   0.966   0.954   1.006   1.013   1.022   1.153   1.012   0.929   1.078   1.045   0.876   0.875   0.877   0.870   0.927   0.989   0.957   0.937   0.913   0.955   1.030   0.991   1.047   0.993   1.014   1.003   1.004   1.009   0.916   0.931   0.948   0.920   1.043
   191.00    1.040   0.928   0.860   0.964   1.003   0.995   0.990   1.045   0.986   0.911   0.988   1.190   1.240   1.177   1.062   1.142   1.133   1.100   0.983   0.910   0.914   0.952   1.006   1.006   0.968   0.934   0.845   0.965   0.991   0.989   1.029   0.964   0.988   1.048   1.000   1.083   0.931   0.893   0.995   0.953   1.023
   181.00    1.043   0.994   0.982   0.961   1.022   0.993   1.017   1.015   1.028   0.983   0.988   1.222   1.317   1.234   1.034   1.122   1.100   1.084   1.048   0.931   0.944   1.002   0.899   0.983   1.027   1.030   0.922   0.942   0.978   0.957   1.004   0.949   1.024   0.985   1.078   1.030   0.958   0.945   0.925   1.042   1.149
   171.00    0.936   0.981   0.925   0.984   0.968   1.006   1.068   0.978   0.961   0.968   1.054   1.119   1.223   1.263   1.167   1.111   1.145   1.146   1.062   1.034   1.024   0.977   0.952   1.043   1.103   1.103   1.008   0.962   0.957   0.875   0.991   1.045   0.928   0.986   1.026   1.068   1.043   1.030   1.035   1.069   1.141
   161.00    0.945   0.933   0.999   1.043   1.008   0.980   1.016   0.883   0.866   1.007   0.971   1.007   1.171   1.239   1.233   1.173   1.083   1.094   1.019   1.061   1.041   0.969   1.112   1.112   1.064   1.043   0.880   1.010   0.950   0.951   1.040   1.048   0.936   1.023   1.045   1.045   1.182   1.145   1.018   1.027   0.997
   151.00    0.923   1.056   1.051   1.041   1.109   1.092   1.024   1.038   0.970   1.008   1.041   1.003   1.183   1.180   1.214   1.243   1.178   1.190   0.988   0.980   0.983   1.035   1.224   1.164   1.058   1.052   0.988   0.982   0.976   0.911   0.952   1.019   1.043   0.959   1.115   1.097   1.131   1.077   0.988   1.041   1.071
   141.00    0.979   1.181   1.026   1.048   1.089   0.922   1.023   0.994   1.081   1.024   0.943   0.984   1.111   1.178   1.153   1.303   1.275   1.177   0.920   0.938   1.004   1.019   1.081   1.202   1.099   1.121   1.112   0.994   0.911   0.876   0.853   1.014   1.061   1.024   1.055   1.110   1.089   1.009   0.945   1.030   0.959
   131.00    1.027   1.164   1.180   1.168   1.104   1.021   0.985   1.115   1.003   1.070   0.978   0.946   1.012   1.139   1.121   1.186   1.189   1.129   1.014   0.959   1.033   0.964   1.041   1.077   1.118   1.066   1.001   0.981   0.935   0.987   1.053   1.120   1.109   1.226   1.059   1.060   1.124   0.962   1.040   1.039   0.833
   121.00    1.094   1.300   1.256   1.093   1.039   1.047   1.025   0.991   1.024   1.055   1.047   0.981   1.017   1.187   1.140   1.200   1.161   1.068   0.894   1.019   1.059   0.910   1.019   1.046   0.986   1.088   1.062   1.082   1.017   0.999   1.030   1.002   1.142   1.173   1.086   1.137   1.093   1.042   1.007   1.038   0.912
   111.00    1.095   1.214   1.205   1.246   0.987   0.991   0.936   1.016   0.999   1.035   1.076   1.005   1.023   1.111   1.225   1.235   1.081   1.029   1.000   0.923   0.959   0.951   1.011   0.998   1.060   1.172   1.217   1.111   0.962   1.023   1.025   1.095   1.081   1.113   1.029   1.077   0.976   1.098   0.930   1.005   0.840
   101.00    0.974   1.086   1.187   1.161   1.106   0.876   0.932   0.980   0.947   0.985   1.072   0.947   1.030   1.130   1.167   1.179   1.012   1.015   1.001   0.970   0.924   0.842   0.956   1.040   0.976   1.051   1.156   1.052   0.970   0.995   0.997   1.024   0.954   0.965   1.068   1.026   0.995   1.043   1.022   0.911   0.878
    91.00    1.065   1.012   1.109   1.101   1.144   1.005   0.902   0.956   1.022   0.988   1.061   1.010   1.042   1.096   1.154   1.114   0.994   0.936   0.947   0.940   1.036   0.896   0.897   0.991   1.019   1.026   1.070   0.979   0.917   0.922   1.009   0.944   0.948   0.949   0.969   0.992   0.950   1.100   0.991   0.988   0.814
    81.00    1.098   1.076   1.085   1.177   1.046   1.020   0.898   1.000   0.900   0.952   1.037   1.127   1.096   1.025   1.062   1.137   1.086   0.938   0.905   0.846   0.965   0.904   0.903   0.870   0.938   1.030   1.038   0.949   0.915   0.919   0.946   0.936   0.925   0.978   0.997   1.026   0.912   1.068   1.032   0.944   0.996
    71.00    0.988   1.166   1.026   1.059   1.068   1.014   0.939   1.038   0.975   0.936   0.954   1.080   1.112   1.016   1.112   1.111   1.080   0.925   0.895   0.800   0.916   0.925   0.923   0.928   0.979   0.995   0.877   0.922   0.862   0.886   0.972   1.011   0.902   0.899   0.908   0.843   0.947   0.986   0.964   0.995   1.061
    61.00    1.016   1.030   1.106   1.000   0.988   0.982   0.960   0.934   0.953   0.953   0.963   1.080   1.059   1.001   1.080   1.031   1.102   0.970   0.842   0.925   0.922   0.941   0.926   0.908   0.946   0.970   0.930   0.842   0.992   0.877   0.911   0.975   0.912   0.895   0.883   0.843   0.884   0.919   0.907   1.032   1.059
    51.00    0.954   1.049   1.056   1.069   1.042   0.931   0.943   1.004   0.983   0.960   0.951   1.092   1.061   1.022   0.956   1.058   0.934   0.890   0.899   0.901   0.870   0.866   0.895   1.045   1.013   0.941   0.905   0.871   0.983   0.976   0.948   0.918   0.960   0.939   0.866   0.897   0.929   0.863   0.874   1.015   0.877
    41.00    0.988   1.050   1.009   1.089   1.070   1.076   0.922   0.973   1.036   1.027   0.935   0.995   1.003   0.922   0.882   0.950   0.992   0.921   0.916   0.971   0.912   0.896   0.979   0.961   0.899   0.962   0.929   0.938   0.948   0.836   0.846   0.931   1.039   0.963   0.938   0.841   0.969   0.889   0.824   0.898   0.941
    31.00    1.047   1.063   1.086   1.030   1.028   1.056   1.042   1.064   1.154   1.001   0.991   0.971   0.893   0.871   0.876   0.925   0.954   0.998   0.901   0.940   0.867   0.973   0.944   0.962   0.911   0.924   0.852   0.889   0.987   0.881   0.884   0.967   1.095   0.954   1.011   1.063   0.988   0.856   0.889   0.884   0.912
    21.00    1.071   0.948   0.967   1.014   1.053   1.072   0.990   1.090   1.085   1.036   0.962   0.893   0.830   0.853   0.880   0.989   0.978   0.900   0.950   0.978   0.965   1.018   0.952   1.083   0.922   0.906   0.880   0.968   0.964   0.918   0.905   1.023   1.052   1.034   1.091   1.046   0.990   0.882   0.858   0.900   0.972
    11.00    1.132   0.996   0.949   0.927   1.013   1.056   0.982   0.927   1.052   0.975   0.985   0.925   0.992   0.891   0.916   0.948   1.017   0.939   0.946   1.007   0.860   0.967   1.014   1.076   0.987   1.074   1.030   0.937   0.928   0.912   1.005   0.961   1.029   1.060   1.039   0.986   0.966   0.897   0.932   0.893   0.916
     1.00    0.974   1.017   0.931   0.882   0.978   0.953   0.887   0.867   0.945   0.983   0.954   0.917   0.950   0.821   0.955   0.979   1.019   1.040   0.935   0.948   0.945   0.947   0.952   0.983   0.940   1.062   0.976   0.923   0.913   0.938   1.006   1.013   0.995   1.020   1.001   1.049   1.030   1.002   0.984   0.910   0.928

   Mean standard deviation across all grid points:
      u component:    0.963 m/s
      v component:    0.992 m/s
      w component:    0.997 m/s


U-component (X) statistics from the interpolated hub point:

   Mean =  10.0066 m/s
   TI   =  10.9804 %


Processing complete.  9.1719 CPU seconds used.
